New Line.clineacable(cramaee():s_ncctt2333->s_ncctt2341) Units=mi Length=0.0150057989645 bus1=s_ncctt2333.1 bus2=s_ncctt2341.1 switch=n phases=1 Linecode=1P_Code0

New Line.clineacable(cramaee():s_dummy3798->s_ncctt1510_bt) Units=mi Length=0.0122485894262 bus1=s_ncctt1510_bt.1.2 bus2=s_dummy3798.1.2 switch=n phases=2 Linecode=2P_Code1

New Line.clineacable(cramaee():s_dummy4219->s_ncctt1668_bt) Units=mi Length=0.000621371 bus1=s_ncctt1668_bt.1.2 bus2=s_dummy4219.1.2 switch=n phases=2 Linecode=2P_Code2

New Line.clineacable(cramaee():rclv1170->s_ncctt1932_bt) Units=mi Length=0.0143493826401 bus1=s_ncctt1932_bt.1.2 bus2=rclv1170.1.2 switch=n phases=2 Linecode=2P_Code3

New Line.switch(cramaee():s_ncctt2669->s_ncctt2670)_s_1696 Units=mi Length=0.000621371 bus1=s_ncctt2669.1 bus2=s_ncctt2669->s_ncctt2670_s.1 switch=y phases=3 Linecode=1P_Code4

New Line.switch(cramaee():s_ncctt2669->s_ncctt2670)_s_1697 Units=mi Length=0.000621371 bus1=s_ncctt2669->s_ncctt2670_s_s.1 bus2=s_ncctt2670.1 switch=y phases=3 Linecode=1P_Code4

New Line.clineacable(cramaee():rclv1900->s_ncctt2324_bt) Units=mi Length=0.0156280398839 bus1=s_ncctt2324_bt.1.2 bus2=rclv1900.1.2 switch=n phases=2 Linecode=2P_Code3

New Line.clineacable(cramaee():s_ncctt2619->s_ncctt2647) Units=mi Length=0.063325782723 bus1=s_ncctt2619.1.2.3 bus2=s_ncctt2647.1.2.3 switch=n phases=3 Linecode=3P_Code5

New Line.clineacable(cramaee():s_dummy984->s_ncctt220_bt) Units=mi Length=0.0158665842108 bus1=s_ncctt220_bt.1.2 bus2=s_dummy984.1.2 switch=n phases=2 Linecode=2P_Code3

New Line.clineacable(cramaee():s_dummy3491->s_ncctt1544_bt) Units=mi Length=0.0076633064059 bus1=s_ncctt1544_bt.1.2 bus2=s_dummy3491.1.2 switch=n phases=2 Linecode=2P_Code3

New Line.switch(cramaee():s_ncctt1663->s_ncctt1686)_s_1937 Units=mi Length=0.000621371 bus1=s_ncctt1686.1.2.3 bus2=s_ncctt1663->s_ncctt1686_s_s.1.2.3 switch=y phases=3 Linecode=3P_Code6

New Line.clineacable(cramaee():s_dummy2187->s_ncctt827_bt) Units=mi Length=0.0189390773945 bus1=s_ncctt827_bt.1.2 bus2=s_dummy2187.1.2 switch=n phases=2 Linecode=2P_Code1

New Line.clineacable(cramaee():s_dummy4949->s_ncctt2351_bt) Units=mi Length=0.0097094811089 bus1=s_ncctt2351_bt.1.2 bus2=s_dummy4949.1.2 switch=n phases=2 Linecode=2P_Code3

New Line.clineacable(cramaee():rclv384->s_dummy2114) Units=mi Length=0.0136731445808 bus1=s_dummy2114.1.2 bus2=rclv384.1.2 switch=n phases=2 Linecode=2P_Code3

New Line.clineacable(cramaee():s_dummy5951->s_dummy5956) Units=mi Length=0.012405672015 bus1=s_dummy5956.1.2 bus2=s_dummy5951.1.2 switch=n phases=2 Linecode=2P_Code3

New Line.clineacable(cramaee():rclv2758->s_ncctt1399_bt) Units=mi Length=0.0219640356967 bus1=s_ncctt1399_bt.1.2 bus2=rclv2758.1.2 switch=n phases=2 Linecode=2P_Code3

New Line.clineacable(cramaee():rclv3826->s_dummy1977) Units=mi Length=0.0184965369683 bus1=s_dummy1977.1.2 bus2=rclv3826.1.2 switch=n phases=2 Linecode=2P_Code3

New Line.clineacable(cramaee():rclv4767->s_dummy788) Units=mi Length=0.0221009858651 bus1=s_dummy788.1.2 bus2=rclv4767.1.2 switch=n phases=2 Linecode=2P_Code3

New Line.clineacable(cramaee():rclv2526->s_ncctt1060_bt) Units=mi Length=0.0569692816672 bus1=s_ncctt1060_bt.1.2 bus2=rclv2526.1.2 switch=n phases=2 Linecode=2P_Code1

New Line.clineacable(cramaee():s_dummy4583->s_ncctt1990_bt) Units=mi Length=0.000621371 bus1=s_ncctt1990_bt.1.2 bus2=s_dummy4583.1.2 switch=n phases=2 Linecode=2P_Code2

New Line.clineacable(cramaee():s_dummy1880->s_ncctt671_bt) Units=mi Length=0.000621371 bus1=s_ncctt671_bt.1.2 bus2=s_dummy1880.1.2 switch=n phases=2 Linecode=2P_Code3

New Line.clineacable(cramaee():s_ncctt1624->s_ncctt1635) Units=mi Length=0.0576895127933 bus1=s_ncctt1635.2 bus2=s_ncctt1624.2 switch=n phases=1 Linecode=1P_Code0

New Line.clineacable(cramaee():s_ncctt1514->s_ncctt1519) Units=mi Length=0.110763730347 bus1=s_ncctt1514->s_ncctt1519_s_s.1 bus2=s_ncctt1514->s_ncctt1519_s.1 switch=n phases=1 Linecode=1P_Code7

New Line.clineacable(cramaee():s_ncctt22->s_ncctt33) Units=mi Length=0.0377406453867 bus1=s_ncctt22.1.2.3 bus2=s_ncctt33.1.2.3 switch=n phases=3 Linecode=3P_Code5

New Line.clineacable(cramaee():rclv4216->s_ncctt736_bt) Units=mi Length=0.0324863943478 bus1=s_ncctt736_bt.1.2 bus2=rclv4216.1.2 switch=n phases=2 Linecode=2P_Code3

New Line.clineacable(cramaee():rclv4709->s_dummy980) Units=mi Length=0.0117380088755 bus1=s_dummy980.1.2 bus2=rclv4709.1.2 switch=n phases=2 Linecode=2P_Code3

New Line.clineacable(cramaee():s_dummy3808->s_dummy3809) Units=mi Length=0.034292844119 bus1=s_dummy3809.1.2 bus2=s_dummy3808.1.2 switch=n phases=2 Linecode=2P_Code3

New Line.clineacable(cramaee():s_ncctt2391->s_ncctt2395) Units=mi Length=0.0131040308819 bus1=s_ncctt2395.1.2.3 bus2=s_ncctt2391.1.2.3 switch=n phases=3 Linecode=3P_Code5

New Line.clineacable(cramaee():rclv1201->s_ncctt1894_bt) Units=mi Length=0.0496911631442 bus1=s_ncctt1894_bt.1.2 bus2=rclv1201.1.2 switch=n phases=2 Linecode=2P_Code3

New Line.switch(cramaee():s_ncctt511->s_ncctt522)_s_1366 Units=mi Length=0.000621371 bus1=s_ncctt511->s_ncctt522_s.1.2.3 bus2=s_ncctt511.1.2.3 switch=y phases=3 Linecode=3P_Code6

New Line.clineacable(cramaee():s_dummy399->s_dummy400) Units=mi Length=0.0311079449214 bus1=s_dummy399.1.2 bus2=s_dummy400.1.2 switch=n phases=2 Linecode=2P_Code3

New Line.clineacable(cramaee():s_ncctt1776->s_ncctt1785) Units=mi Length=0.064935133613 bus1=s_ncctt1776.1 bus2=s_ncctt1785.1 switch=n phases=1 Linecode=1P_Code0

New Line.clineacable(cramaee():s_dummy4970->s_ncctt2333_bt) Units=mi Length=0.007456452 bus1=s_ncctt2333_bt.1.2 bus2=s_dummy4970.1.2 switch=n phases=2 Linecode=2P_Code3

New Line.clineacable(cramaee():s_dummy638->s_dummy639) Units=mi Length=0.0111475200142 bus1=s_dummy638.1.2 bus2=s_dummy639.1.2 switch=n phases=2 Linecode=2P_Code3

New Line.clineacable(cramaee():rclv825->s_ncctt553_bt) Units=mi Length=0.070254690744 bus1=s_ncctt553_bt.1.2 bus2=rclv825.1.2 switch=n phases=2 Linecode=2P_Code3

New Line.clineacable(cramaee():rclv6025->s_dummy3203) Units=mi Length=0.0314684643756 bus1=s_dummy3203.1.2 bus2=rclv6025.1.2 switch=n phases=2 Linecode=2P_Code3

New Line.clineacable(cramaee():s_ncctt57->s_ncctt62) Units=mi Length=0.101616527856 bus1=s_ncctt62.2 bus2=s_ncctt57.2 switch=n phases=1 Linecode=1P_Code0

New Line.clineacable(cramaee():s_ncctt2295->s_ncctt2301) Units=mi Length=0.119406379586 bus1=s_ncctt2301.2 bus2=s_ncctt2295.2 switch=n phases=1 Linecode=1P_Code0

New Line.clineacable(cramaee():s_ncctt1938->s_ncctt1955) Units=mi Length=0.121845882132 bus1=s_ncctt1938.1.2.3 bus2=s_ncctt1955.1.2.3 switch=n phases=3 Linecode=3P_Code5

New Line.clineacable(cramaee():rclv4289->s_ncctt638_bt) Units=mi Length=0.037059809182 bus1=s_ncctt638_bt.1.2 bus2=rclv4289.1.2 switch=n phases=2 Linecode=2P_Code3

New Line.clineacable(cramaee():s_ncctt375->s_ncctt406) Units=mi Length=0.071877090425 bus1=s_ncctt375.1 bus2=s_ncctt406.1 switch=n phases=1 Linecode=1P_Code0

New Line.clineacable(cramaee():s_dummy3498->s_ncctt1568_bt) Units=mi Length=0.0328805921102 bus1=s_ncctt1568_bt.1.2 bus2=s_dummy3498.1.2 switch=n phases=2 Linecode=2P_Code3

New Line.clineacable(cramaee():rclv3257->s_ncctt1833_bt) Units=mi Length=0.0571188456669 bus1=s_ncctt1833_bt.1.2 bus2=rclv3257.1.2 switch=n phases=2 Linecode=2P_Code3

New Line.switch(cramaee():s_ncctt1663->s_ncctt1686)_s_1938 Units=mi Length=0.000621371 bus1=s_ncctt1663->s_ncctt1686_s.1.2.3 bus2=s_ncctt1663.1.2.3 switch=y phases=3 Linecode=3P_Code6

New Line.clineacable(cramaee():s_dummy3142->s_ncctt1374_bt) Units=mi Length=0.000621371 bus1=s_ncctt1374_bt.1.2 bus2=s_dummy3142.1.2 switch=n phases=2 Linecode=2P_Code3

New Line.clineacable(cramaee():s_ncctt2205->s_ncctt2210) Units=mi Length=0.073567840916 bus1=s_ncctt2210.1.2.3 bus2=s_ncctt2205.1.2.3 switch=n phases=3 Linecode=3P_Code5

New Line.switch(cramaee():s_ncctt1056->s_ncctt1076)_s_1535 Units=mi Length=0.000621371 bus1=s_ncctt1056->s_ncctt1076_s.1.2.3 bus2=s_ncctt1056.1.2.3 switch=y phases=3 Linecode=3P_Code6

New Line.switch(cramaee():s_ncctt1056->s_ncctt1076)_s_1534 Units=mi Length=0.000621371 bus1=s_ncctt1076.1.2.3 bus2=s_ncctt1056->s_ncctt1076_s_s.1.2.3 switch=y phases=3 Linecode=3P_Code6

New Line.clineacable(cramaee():rclv4666->s_dummy766) Units=mi Length=0.0105040903437 bus1=s_dummy766.1.2 bus2=rclv4666.1.2 switch=n phases=2 Linecode=2P_Code3

New Line.clineacable(cramaee():s_dummy967->s_dummy968) Units=mi Length=0.0096941953823 bus1=s_dummy967.1.2 bus2=s_dummy968.1.2 switch=n phases=2 Linecode=2P_Code3

New Line.clineacable(cramaee():s_dummy4202->s_dummy4203) Units=mi Length=0.000621371 bus1=s_dummy4203.1.2 bus2=s_dummy4202.1.2 switch=n phases=2 Linecode=2P_Code2

New Line.clineacable(cramaee():rclv1643->s_ncctt1994_bt) Units=mi Length=0.0106292344631 bus1=s_ncctt1994_bt.1.2 bus2=rclv1643.1.2 switch=n phases=2 Linecode=2P_Code3

New Line.clineacable(cramaee():rclv2471->s_ncctt1032_bt) Units=mi Length=0.0126979027963 bus1=s_ncctt1032_bt.1.2 bus2=rclv2471.1.2 switch=n phases=2 Linecode=2P_Code1

New Line.clineacable(cramaee():rclv4287->s_ncctt642_bt) Units=mi Length=0.029758699932 bus1=s_ncctt642_bt.1.2 bus2=rclv4287.1.2 switch=n phases=2 Linecode=2P_Code3

New Line.clineacable(cramaee():rclv4125->s_dummy972) Units=mi Length=0.0275793654237 bus1=s_dummy972.1.2 bus2=rclv4125.1.2 switch=n phases=2 Linecode=2P_Code3

New Line.clineacable(cramaee():rclv2552->s_dummy2824) Units=mi Length=0.011692338107 bus1=s_dummy2824.1.2 bus2=rclv2552.1.2 switch=n phases=2 Linecode=2P_Code1

New Line.clineacable(cramaee():s_dummy4330->s_ncctt1839_bt) Units=mi Length=0.0187738548456 bus1=s_ncctt1839_bt.1.2 bus2=s_dummy4330.1.2 switch=n phases=2 Linecode=2P_Code3

New Line.clineacable(cramaee():s_dummy747->s_dummy750) Units=mi Length=0.0187873385963 bus1=s_dummy747.1.2 bus2=s_dummy750.1.2 switch=n phases=2 Linecode=2P_Code3

New Line.clineacable(cramaee():s_ncctt1057->s_ncctt1063) Units=mi Length=0.109225215751 bus1=s_ncctt1057->s_ncctt1063_s.1.2.3 bus2=s_ncctt1057->s_ncctt1063_s_s.1.2.3 switch=n phases=3 Linecode=3P_Code8

New Line.clineacable(cramaee():s_dummy5641->s_dummy5643) Units=mi Length=0.000621371 bus1=s_dummy5641.1.2 bus2=s_dummy5643.1.2 switch=n phases=2 Linecode=2P_Code2

New Line.clineacable(cramaee():s_ncctt1575->s_ncctt1580) Units=mi Length=0.067087562757 bus1=s_ncctt1575.2 bus2=s_ncctt1580.2 switch=n phases=1 Linecode=1P_Code0

New Line.switch(cramaee():s_ncctt1898->s_ncctt1921)_s_1319 Units=mi Length=0.000621371 bus1=s_ncctt1921.1.2.3 bus2=s_ncctt1898->s_ncctt1921_s_s.1.2.3 switch=y phases=3 Linecode=3P_Code6

New Line.switch(cramaee():s_ncctt1613->s_ncctt1652)_s_1128 Units=mi Length=0.000621371 bus1=s_ncctt1613.1.2.3 bus2=s_ncctt1613->s_ncctt1652_s.1.2.3 switch=y phases=3 Linecode=3P_Code6

New Line.clineacable(cramaee():s_dummy6065->s_dummy6066) Units=mi Length=0.0611853460393 bus1=s_dummy6065.1.2 bus2=s_dummy6066.1.2 switch=n phases=2 Linecode=2P_Code1

New Line.clineacable(cramaee():rclv597->s_ncctt2532_bt) Units=mi Length=0.0509243981679 bus1=s_ncctt2532_bt.1.2 bus2=rclv597.1.2 switch=n phases=2 Linecode=2P_Code3

New Line.clineacable(cramaee():rclv5331->s_ncctt1535_bt) Units=mi Length=0.0211335112181 bus1=s_ncctt1535_bt.1.2 bus2=rclv5331.1.2 switch=n phases=2 Linecode=2P_Code3

New Line.clineacable(cramaee():rclv43->s_dummy946) Units=mi Length=0.0091698203954 bus1=s_dummy946.1.2 bus2=rclv43.1.2 switch=n phases=2 Linecode=2P_Code3

New Line.clineacable(cramaee():rclv1574->s_ncctt2230_bt) Units=mi Length=0.0296713351694 bus1=s_ncctt2230_bt.1.2 bus2=rclv1574.1.2 switch=n phases=2 Linecode=2P_Code1

New Line.clineacable(cramaee():rclv4970->s_dummy5145) Units=mi Length=0.0093340487507 bus1=s_dummy5145.1.2 bus2=rclv4970.1.2 switch=n phases=2 Linecode=2P_Code3

New Line.clineacable(cramaee():s_dummy1569->s_dummy1571) Units=mi Length=0.000621371 bus1=s_dummy1571.1.2 bus2=s_dummy1569.1.2 switch=n phases=2 Linecode=2P_Code3

New Line.clineacable(cramaee():s_dummy4401->s_ncctt1882_bt) Units=mi Length=0.0225604897196 bus1=s_ncctt1882_bt.1.2 bus2=s_dummy4401.1.2 switch=n phases=2 Linecode=2P_Code3

New Line.clineacable(cramaee():s_dummy1158->s_dummy1160) Units=mi Length=0.000621371 bus1=s_dummy1158.1.2 bus2=s_dummy1160.1.2 switch=n phases=2 Linecode=2P_Code2

New Line.switch(cramaee():s_ncctt2546->s_ncctt497)_s_1258 Units=mi Length=0.000621371 bus1=s_ncctt2546->s_ncctt497_s.3 bus2=s_ncctt2546.3 switch=y phases=3 Linecode=1P_Code4

New Line.switch(cramaee():s_ncctt2546->s_ncctt497)_s_1257 Units=mi Length=0.000621371 bus1=s_ncctt497.3 bus2=s_ncctt2546->s_ncctt497_s_s.3 switch=y phases=3 Linecode=1P_Code4

New Line.clineacable(cramaee():s_ncctt1763->s_ncctt177) Units=mi Length=0.081108799372 bus1=s_ncctt1763->s_ncctt177_s_s.1.2.3 bus2=s_ncctt1763->s_ncctt177_s.1.2.3 switch=n phases=3 Linecode=3P_Code8

New Line.switch(cramaee():s_ncctt1073->s_ncctt1079)_s_1443 Units=mi Length=0.000621371 bus1=s_ncctt1073->s_ncctt1079_s_s.3 bus2=s_ncctt1079.3 switch=y phases=3 Linecode=1P_Code4

New Line.switch(cramaee():s_ncctt1073->s_ncctt1079)_s_1442 Units=mi Length=0.000621371 bus1=s_ncctt1073.3 bus2=s_ncctt1073->s_ncctt1079_s.3 switch=y phases=3 Linecode=1P_Code4

New Line.clineacable(cramaee():s_ncctt656->s_ncctt691) Units=mi Length=0.087014930727 bus1=s_ncctt656.1.2.3 bus2=s_ncctt691.1.2.3 switch=n phases=3 Linecode=3P_Code5

New Line.clineacable(cramaee():s_ncctt505->s_ncctt519) Units=mi Length=0.143555963501 bus1=s_ncctt505->s_ncctt519_s_s.1 bus2=s_ncctt505->s_ncctt519_s.1 switch=n phases=1 Linecode=1P_Code7

New Line.clineacable(cramaee():s_dummy1784->s_ncctt630_bt) Units=mi Length=0.000621371 bus1=s_ncctt630_bt.1.2 bus2=s_dummy1784.1.2 switch=n phases=2 Linecode=2P_Code3

New Line.clineacable(cramaee():s_ncctt1254->s_ncctt1269) Units=mi Length=0.065890802211 bus1=s_ncctt1269.2 bus2=s_ncctt1254.2 switch=n phases=1 Linecode=1P_Code0

New Line.switch(cramaee():s_ncctt1251->s_ncctt1592)_s_1157 Units=mi Length=0.000621371 bus1=s_ncctt1251->s_ncctt1592_s.1.2.3 bus2=s_ncctt1251.1.2.3 switch=y phases=3 Linecode=3P_Code6

New Line.clineacable(cramaee():rclv894->s_ncctt589_bt) Units=mi Length=0.000621371 bus1=s_ncctt589_bt.1.2 bus2=rclv894.1.2 switch=n phases=2 Linecode=2P_Code3

New Line.clineacable(cramaee():s_ncctt728->s_ncctt756) Units=mi Length=0.0218866750072 bus1=s_ncctt756.1.2.3 bus2=s_ncctt728.1.2.3 switch=n phases=3 Linecode=3P_Code5

New Line.clineacable(cramaee():rclv1095->s_dummy4524) Units=mi Length=0.027304284482 bus1=s_dummy4524.1.2 bus2=rclv1095.1.2 switch=n phases=2 Linecode=2P_Code3

New Line.fuse(cramaee():s_ncctt1064->s_ncctt1107)_s_2166 Units=mi Length=0.000621371 bus1=s_ncctt1107.2 bus2=s_ncctt1064->s_ncctt1107_s.2 switch=y phases=3 Linecode=1P_Code4

New Line.clineacable(cramaee():s_dummy5185->s_ncctt2218_bt) Units=mi Length=0.000621371 bus1=s_ncctt2218_bt.1.2 bus2=s_dummy5185.1.2 switch=n phases=2 Linecode=2P_Code2

New Line.clineacable(cramaee():rclv4658->s_dummy999) Units=mi Length=0.012365904271 bus1=s_dummy999.1.2 bus2=rclv4658.1.2 switch=n phases=2 Linecode=2P_Code3

New Line.clineacable(cramaee():s_dummy2225->s_dummy2227) Units=mi Length=0.000621371 bus1=s_dummy2225.1.2 bus2=s_dummy2227.1.2 switch=n phases=2 Linecode=2P_Code1

New Line.clineacable(cramaee():s_ncctt546->s_ncctt549) Units=mi Length=0.000621371 bus1=s_ncctt546->s_ncctt549_s_s.1 bus2=s_ncctt546->s_ncctt549_s.1 switch=n phases=1 Linecode=1P_Code7

New Line.clineacable(cramaee():rclv913->s_dummy1303) Units=mi Length=0.0456161499891 bus1=s_dummy1303.1.2 bus2=rclv913.1.2 switch=n phases=2 Linecode=2P_Code3

New Line.clineacable(cramaee():s_ncctt1021->s_ncctt2503) Units=mi Length=0.139228114486 bus1=s_ncctt2503.1.2.3 bus2=s_ncctt1021.1.2.3 switch=n phases=3 Linecode=3P_Code5

New Line.clineacable(cramaee():rclv1321->s_dummy4682) Units=mi Length=0.0193058726958 bus1=s_dummy4682.1.2 bus2=rclv1321.1.2 switch=n phases=2 Linecode=2P_Code3

New Line.clineacable(cramaee():s_ncctt1110->s_ncctt1195) Units=mi Length=0.0521844142817 bus1=s_ncctt1110.1.2.3 bus2=s_ncctt1195.1.2.3 switch=n phases=3 Linecode=3P_Code5

New Line.clineacable(cramaee():s_ncctt1664->s_ncctt1679) Units=mi Length=0.115287932598 bus1=s_ncctt1664.1.2.3 bus2=s_ncctt1679.1.2.3 switch=n phases=3 Linecode=3P_Code5

New Line.clineacable(cramaee():s_dummy3651->s_ncctt1461_bt) Units=mi Length=0.009496412993 bus1=s_ncctt1461_bt.1.2 bus2=s_dummy3651.1.2 switch=n phases=2 Linecode=2P_Code3

New Line.clineacable(cramaee():s_dummy5279->s_ncctt2260_bt) Units=mi Length=0.019422193347 bus1=s_ncctt2260_bt.1.2 bus2=s_dummy5279.1.2 switch=n phases=2 Linecode=2P_Code3

New Line.clineacable(cramaee():s_dummy476->s_ncctt346_bt) Units=mi Length=0.0115931672954 bus1=s_ncctt346_bt.1.2 bus2=s_dummy476.1.2 switch=n phases=2 Linecode=2P_Code2

New Line.clineacable(cramaee():s_dummy2173->s_ncctt822_bt) Units=mi Length=0.0537594654925 bus1=s_ncctt822_bt.1.2 bus2=s_dummy2173.1.2 switch=n phases=2 Linecode=2P_Code3

New Line.clineacable(cramaee():rclv4382->s_ncctt658_bt) Units=mi Length=0.00154955635867 bus1=s_ncctt658_bt.1.2 bus2=rclv4382.1.2 switch=n phases=2 Linecode=2P_Code3

New Line.clineacable(cramaee():rclv3711->s_dummy38) Units=mi Length=0.0265949894855 bus1=s_dummy38.1.2 bus2=rclv3711.1.2 switch=n phases=2 Linecode=2P_Code2

New Line.clineacable(cramaee():s_dummy2200->s_ncctt836_bt) Units=mi Length=0.000621371 bus1=s_ncctt836_bt.1.2 bus2=s_dummy2200.1.2 switch=n phases=2 Linecode=2P_Code3

New Line.clineacable(cramaee():rclv3956->s_dummy274) Units=mi Length=0.0367114685994 bus1=s_dummy274.1.2 bus2=rclv3956.1.2 switch=n phases=2 Linecode=2P_Code3

New Line.switch(cramaee():s_ncctt662->s_ncctt684)_s_1793 Units=mi Length=0.000621371 bus1=s_ncctt684.1.2.3 bus2=s_ncctt662->s_ncctt684_s.1.2.3 switch=y phases=3 Linecode=3P_Code6

New Line.clineacable(cramaee():rclv4493->s_ncctt274_bt) Units=mi Length=0.0095228833976 bus1=s_ncctt274_bt.1.2 bus2=rclv4493.1.2 switch=n phases=2 Linecode=2P_Code3

New Line.clineacable(cramaee():s_ncctt1234->s_ncctt1616) Units=mi Length=0.000621371 bus1=s_ncctt1234.1.2.3 bus2=s_ncctt1616.1.2.3 switch=n phases=3 Linecode=3P_Code5

New Line.clineacable(cramaee():rclv5602->s_ncctt1288_bt) Units=mi Length=0.0257554551274 bus1=s_ncctt1288_bt.1.2 bus2=rclv5602.1.2 switch=n phases=2 Linecode=2P_Code3

New Line.clineacable(cramaee():s_ncctt1898->s_ncctt1925) Units=mi Length=0.0097616762729 bus1=s_ncctt1898->s_ncctt1925_s.1.2.3 bus2=s_ncctt1898->s_ncctt1925_s_s.1.2.3 switch=n phases=3 Linecode=3P_Code8

New Line.clineacable(cramaee():s_dummy3770->s_ncctt1512_bt) Units=mi Length=0.0411446399989 bus1=s_ncctt1512_bt.1.2 bus2=s_dummy3770.1.2 switch=n phases=2 Linecode=2P_Code1

New Line.clineacable(cramaee():s_ncctt2040->s_ncctt2058) Units=mi Length=0.0508663621165 bus1=s_ncctt2040.1.2.3 bus2=s_ncctt2058.1.2.3 switch=n phases=3 Linecode=3P_Code5

New Line.clineacable(cramaee():s_dummy4094->s_dummy4095) Units=mi Length=0.009909624708 bus1=s_dummy4095.1.2 bus2=s_dummy4094.1.2 switch=n phases=2 Linecode=2P_Code3

New Line.clineacable(cramaee():s_dummy286->s_dummy288) Units=mi Length=0.0216198582998 bus1=s_dummy288.1.2 bus2=s_dummy286.1.2 switch=n phases=2 Linecode=2P_Code3

New Line.clineacable(cramaee():s_ncctt800->s_ncctt807) Units=mi Length=0.108184419326 bus1=s_ncctt800.1.2.3 bus2=s_ncctt807.1.2.3 switch=n phases=3 Linecode=3P_Code5

New Line.clineacable(cramaee():rclv4624->s_dummy997) Units=mi Length=0.0153599182974 bus1=s_dummy997.1.2 bus2=rclv4624.1.2 switch=n phases=2 Linecode=2P_Code3

New Line.clineacable(cramaee():s_dummy1962->s_ncctt713_bt) Units=mi Length=0.0135887002619 bus1=s_ncctt713_bt.1.2 bus2=s_dummy1962.1.2 switch=n phases=2 Linecode=2P_Code3

New Line.clineacable(cramaee():rclv514->s_ncctt2521_bt) Units=mi Length=0.029772991465 bus1=s_ncctt2521_bt.1.2 bus2=rclv514.1.2 switch=n phases=2 Linecode=2P_Code1

New Line.fuse(cramaee():s_ncctt505->s_ncctt519)_s_2076 Units=mi Length=0.000621371 bus1=s_ncctt519.1 bus2=s_ncctt505->s_ncctt519_s_s_s.1 switch=y phases=3 Linecode=1P_Code4

New Line.clineacable(cramaee():rclv5798->s_dummy3253) Units=mi Length=0.0144864570827 bus1=s_dummy3253.1.2 bus2=rclv5798.1.2 switch=n phases=2 Linecode=2P_Code3

New Line.clineacable(cramaee():s_dummy1644->s_ncctt775_bt) Units=mi Length=0.000621371 bus1=s_ncctt775_bt.1.2 bus2=s_dummy1644.1.2 switch=n phases=2 Linecode=2P_Code2

New Line.clineacable(cramaee():rclv4614->s_dummy692) Units=mi Length=0.0093412566543 bus1=s_dummy692.1.2 bus2=rclv4614.1.2 switch=n phases=2 Linecode=2P_Code3

New Line.clineacable(cramaee():rclv3142->s_dummy4035) Units=mi Length=0.0270119915636 bus1=s_dummy4035.1.2 bus2=rclv3142.1.2 switch=n phases=2 Linecode=2P_Code3

New Line.fuse(cramaee():s_ncctt10->s_ncctt6)_s_1986 Units=mi Length=0.000621371 bus1=s_ncctt10.3 bus2=s_ncctt10->s_ncctt6_s.3 switch=y phases=3 Linecode=1P_Code4

New Line.clineacable(cramaee():s_dummy4120->s_dummy4122) Units=mi Length=0.0105371472809 bus1=s_dummy4122.1.2 bus2=s_dummy4120.1.2 switch=n phases=2 Linecode=2P_Code3

New Line.clineacable(cramaee():rclv5205->s_ncctt1637_bt) Units=mi Length=0.0330632751842 bus1=s_ncctt1637_bt.1.2 bus2=rclv5205.1.2 switch=n phases=2 Linecode=2P_Code1

New Line.fuse(cramaee():s_ncctt2018->s_ncctt2023)_s_2300 Units=mi Length=0.000621371 bus1=s_ncctt2018.1 bus2=s_ncctt2018->s_ncctt2023_s.1 switch=y phases=3 Linecode=1P_Code4

New Line.clineacable(cramaee():s_ncctt1433->s_ncctt1450) Units=mi Length=0.0320868527948 bus1=s_ncctt1450.1.2.3 bus2=s_ncctt1433.1.2.3 switch=n phases=3 Linecode=3P_Code5

New Line.clineacable(cramaee():s_dummy42->s_ncctt24_bt) Units=mi Length=0.000621371 bus1=s_ncctt24_bt.1.2 bus2=s_dummy42.1.2 switch=n phases=2 Linecode=2P_Code2

New Line.clineacable(cramaee():rclv2907->s_ncctt1179_bt) Units=mi Length=0.00176544549891 bus1=s_ncctt1179_bt.1.2 bus2=rclv2907.1.2 switch=n phases=2 Linecode=2P_Code3

New Line.clineacable(cramaee():s_ncctt306->s_ncctt307) Units=mi Length=0.079905825116 bus1=s_ncctt306.1.2.3 bus2=s_ncctt306->s_ncctt307_s.1.2.3 switch=n phases=3 Linecode=3P_Code5

New Line.clineacable(cramaee():s_dummy330->s_dummy332) Units=mi Length=0.0281075307737 bus1=s_dummy330.1.2 bus2=s_dummy332.1.2 switch=n phases=2 Linecode=2P_Code3

New Line.clineacable(cramaee():s_ncctt1526->s_ncctt1536) Units=mi Length=0.0329929981241 bus1=s_ncctt1536.1.2.3 bus2=s_ncctt1526.1.2.3 switch=n phases=3 Linecode=3P_Code5

New Line.clineacable(cramaee():s_ncctt1982->s_ncctt1991) Units=mi Length=0.110165971445 bus1=s_ncctt1991.1.2.3 bus2=s_ncctt1982.1.2.3 switch=n phases=3 Linecode=3P_Code5

New Line.clineacable(cramaee():s_dummy1216->s_ncctt540_bt) Units=mi Length=0.0176117668014 bus1=s_ncctt540_bt.1.2 bus2=s_dummy1216.1.2 switch=n phases=2 Linecode=2P_Code1

New Line.clineacable(cramaee():s_dummy4699->s_ncctt2048_bt) Units=mi Length=0.000621371 bus1=s_ncctt2048_bt.1.2 bus2=s_dummy4699.1.2 switch=n phases=2 Linecode=2P_Code2

New Line.clineacable(cramaee():rclv3213->s_dummy4298) Units=mi Length=0.0296540610556 bus1=s_dummy4298.1.2 bus2=rclv3213.1.2 switch=n phases=2 Linecode=2P_Code3

New Line.clineacable(cramaee():s_dummy2529->s_dummy2531) Units=mi Length=0.0124627760099 bus1=s_dummy2529.1.2 bus2=s_dummy2531.1.2 switch=n phases=2 Linecode=2P_Code3

New Line.clineacable(cramaee():rclv4271->s_dummy1762) Units=mi Length=0.0121318338153 bus1=s_dummy1762.1.2 bus2=rclv4271.1.2 switch=n phases=2 Linecode=2P_Code3

New Line.clineacable(cramaee():rclv1474->s_ncctt2197_bt) Units=mi Length=0.0323351526464 bus1=s_ncctt2197_bt.1.2 bus2=rclv1474.1.2 switch=n phases=2 Linecode=2P_Code1

New Line.clineacable(cramaee():rclv5443->s_ncctt1580_bt) Units=mi Length=0.0487786176936 bus1=s_ncctt1580_bt.1.2 bus2=rclv5443.1.2 switch=n phases=2 Linecode=2P_Code3

New Line.clineacable(cramaee():s_ncctt896->s_ncctt897) Units=mi Length=0.0458274782662 bus1=s_ncctt896.3 bus2=s_ncctt897.3 switch=n phases=1 Linecode=1P_Code0

New Line.switch(cramaee():s_ncctt1499->s_ncctt1510)_s_1006 Units=mi Length=0.000621371 bus1=s_ncctt1499->s_ncctt1510_s_s.3 bus2=s_ncctt1510.3 switch=y phases=3 Linecode=1P_Code4

New Line.clineacable(cramaee():rclv5456->s_ncctt1588_bt) Units=mi Length=0.0242948604548 bus1=s_ncctt1588_bt.1.2 bus2=rclv5456.1.2 switch=n phases=2 Linecode=2P_Code3

New Line.clineacable(cramaee():rclv6321->s_dummy1462) Units=mi Length=0.028765127703 bus1=s_dummy1462.1.2 bus2=rclv6321.1.2 switch=n phases=2 Linecode=2P_Code3

New Line.clineacable(cramaee():s_ncctt2174->s_ncctt2192) Units=mi Length=0.105053330857 bus1=s_ncctt2192.2 bus2=s_ncctt2174.2 switch=n phases=1 Linecode=1P_Code0

New Line.switch(cramaee():s_ncctt501->s_ncctt504)_s_1349 Units=mi Length=0.000621371 bus1=s_ncctt504.1.2.3 bus2=s_ncctt501->s_ncctt504_s_s.1.2.3 switch=y phases=3 Linecode=3P_Code6

New Line.clineacable(cramaee():rclv138->s_dummy6084) Units=mi Length=0.0325247950756 bus1=s_dummy6084.1.2 bus2=rclv138.1.2 switch=n phases=2 Linecode=2P_Code3

New Line.clineacable(cramaee():s_dummy3118->s_dummy3121) Units=mi Length=0.0106140108736 bus1=s_dummy3118.1.2 bus2=s_dummy3121.1.2 switch=n phases=2 Linecode=2P_Code3

New Line.clineacable(cramaee():rclv4534->s_dummy630) Units=mi Length=0.0218211203667 bus1=s_dummy630.1.2 bus2=rclv4534.1.2 switch=n phases=2 Linecode=2P_Code3

New Line.switch(cramaee():s_ncctt1605->s_ncctt1620)_s_1141 Units=mi Length=0.000621371 bus1=s_ncctt1605->s_ncctt1620_s.1.2.3 bus2=s_ncctt1605.1.2.3 switch=y phases=3 Linecode=3P_Code6

New Line.clineacable(cramaee():rclv942->s_ncctt578_bt) Units=mi Length=0.0329322901774 bus1=s_ncctt578_bt.1.2 bus2=rclv942.1.2 switch=n phases=2 Linecode=2P_Code3

New Line.clineacable(cramaee():rclv3862->s_ncctt67_bt) Units=mi Length=0.0515748493307 bus1=s_ncctt67_bt.1.2 bus2=rclv3862.1.2 switch=n phases=2 Linecode=2P_Code3

New Line.clineacable(cramaee():s_ncctt2213->s_ncctt2249) Units=mi Length=0.198653551442 bus1=s_ncctt2213->s_ncctt2249_s_s.1.2.3 bus2=s_ncctt2213->s_ncctt2249_s.1.2.3 switch=n phases=3 Linecode=3P_Code8

New Line.clineacable(cramaee():s_ncctt512->s_ncctt534) Units=mi Length=0.071996393657 bus1=s_ncctt512->s_ncctt534_s_s.1.2.3 bus2=s_ncctt512->s_ncctt534_s.1.2.3 switch=n phases=3 Linecode=3P_Code8

New Line.switch(cramaee():s_ncctt1605->s_ncctt1620)_s_1140 Units=mi Length=0.000621371 bus1=s_ncctt1620.1.2.3 bus2=s_ncctt1605->s_ncctt1620_s_s.1.2.3 switch=y phases=3 Linecode=3P_Code6

New Line.clineacable(cramaee():s_dummy2079->s_dummy2080) Units=mi Length=0.000621371 bus1=s_dummy2079.1.2 bus2=s_dummy2080.1.2 switch=n phases=2 Linecode=2P_Code3

New Line.clineacable(cramaee():s_dummy1624->s_dummy1629) Units=mi Length=0.000621371 bus1=s_dummy1629.1.2 bus2=s_dummy1624.1.2 switch=n phases=2 Linecode=2P_Code3

New Line.clineacable(cramaee():s_ncctt1137->s_ncctt1145) Units=mi Length=0.144364988543 bus1=s_ncctt1145.1 bus2=s_ncctt1137.1 switch=n phases=1 Linecode=1P_Code0

New Line.clineacable(cramaee():rclv583->s_dummy5845) Units=mi Length=0.0571758875247 bus1=s_dummy5845.1.2 bus2=rclv583.1.2 switch=n phases=2 Linecode=2P_Code3

New Line.switch(cramaee():s_ncctt2231->s_ncctt2241)_s_1393 Units=mi Length=0.000621371 bus1=s_ncctt2231->s_ncctt2241_s_s.1.2.3 bus2=s_ncctt2241.1.2.3 switch=y phases=3 Linecode=3P_Code6

New Line.clineacable(cramaee():rclv5417->s_dummy3481) Units=mi Length=0.0401085038564 bus1=s_dummy3481.1.2 bus2=rclv5417.1.2 switch=n phases=2 Linecode=2P_Code3

New Line.clineacable(cramaee():rclv1791->s_ncctt2280_bt) Units=mi Length=0.000621371 bus1=s_ncctt2280_bt.1.2 bus2=rclv1791.1.2 switch=n phases=2 Linecode=2P_Code3

New Line.clineacable(cramaee():s_dummy2928->s_ncctt1288_bt) Units=mi Length=0.000621371 bus1=s_ncctt1288_bt.1.2 bus2=s_dummy2928.1.2 switch=n phases=2 Linecode=2P_Code2

New Line.clineacable(cramaee():rclv1751->s_ncctt2252_bt) Units=mi Length=0.0234825421465 bus1=s_ncctt2252_bt.1.2 bus2=rclv1751.1.2 switch=n phases=2 Linecode=2P_Code3

New Line.fuse(cramaee():s_ncctt2013->s_ncctt2035)_s_2307 Units=mi Length=0.000621371 bus1=s_ncctt2035.2 bus2=s_ncctt2013->s_ncctt2035_s.2 switch=y phases=3 Linecode=1P_Code4

New Line.clineacable(cramaee():rclv5490->s_dummy3534) Units=mi Length=0.022330830998 bus1=s_dummy3534.1.2 bus2=rclv5490.1.2 switch=n phases=2 Linecode=2P_Code1

New Line.clineacable(cramaee():s_ncctt1659->s_ncctt1680) Units=mi Length=0.072176591247 bus1=s_ncctt1659->s_ncctt1680_s.1.2.3 bus2=s_ncctt1659->s_ncctt1680_s_s.1.2.3 switch=n phases=3 Linecode=3P_Code8

New Line.clineacable(cramaee():s_dummy4844->s_ncctt2134_bt) Units=mi Length=0.000621371 bus1=s_ncctt2134_bt.1.2 bus2=s_dummy4844.1.2 switch=n phases=2 Linecode=2P_Code2

New Line.clineacable(cramaee():s_dummy5551->s_ncctt2418_bt) Units=mi Length=0.010599967889 bus1=s_ncctt2418_bt.1.2 bus2=s_dummy5551.1.2 switch=n phases=2 Linecode=2P_Code3

New Line.clineacable(cramaee():s_dummy31->s_dummy32) Units=mi Length=0.088884014695 bus1=s_dummy31.1.2 bus2=s_dummy32.1.2 switch=n phases=2 Linecode=2P_Code3

New Line.clineacable(cramaee():rclv2865->s_ncctt1438_bt) Units=mi Length=0.0469422799773 bus1=s_ncctt1438_bt.1.2 bus2=rclv2865.1.2 switch=n phases=2 Linecode=2P_Code3

New Line.clineacable(cramaee():rclv3529->s_ncctt1726_bt) Units=mi Length=0.0251674517501 bus1=s_ncctt1726_bt.1.2 bus2=rclv3529.1.2 switch=n phases=2 Linecode=2P_Code3

New Line.clineacable(cramaee():rclv4454->s_ncctt275_bt) Units=mi Length=0.0114332885371 bus1=s_ncctt275_bt.1.2 bus2=rclv4454.1.2 switch=n phases=2 Linecode=2P_Code3

New Line.clineacable(cramaee():rclv6024->s_dummy3200) Units=mi Length=0.0213130874371 bus1=s_dummy3200.1.2 bus2=rclv6024.1.2 switch=n phases=2 Linecode=2P_Code3

New Line.clineacable(cramaee():rclv5078->s_ncctt2428_bt) Units=mi Length=0.0421894131983 bus1=s_ncctt2428_bt.1.2 bus2=rclv5078.1.2 switch=n phases=2 Linecode=2P_Code3

New Line.clineacable(cramaee():rclv6266->s_ncctt447_bt) Units=mi Length=0.0252652555455 bus1=s_ncctt447_bt.1.2 bus2=rclv6266.1.2 switch=n phases=2 Linecode=2P_Code3

New Line.clineacable(cramaee():s_dummy5905->s_dummy5908) Units=mi Length=0.0193348285844 bus1=s_dummy5908.1.2 bus2=s_dummy5905.1.2 switch=n phases=2 Linecode=2P_Code3
