New Load.rclvl5918 conn=wye bus1=rclv5918.1.2 kV=0.240178 Vminpu=0.95 Vmaxpu=1.05 model=1 kW=0.760008 kvar=0.370023806178 Phases=2

New Load.rclvl5919 conn=wye bus1=rclv5919.1.2 kV=0.240178 Vminpu=0.95 Vmaxpu=1.05 model=1 kW=1.66002 kvar=0.800219242954 Phases=2

New Load.rclvl5914 conn=wye bus1=rclv5914.1.2 kV=0.240178 Vminpu=0.95 Vmaxpu=1.05 model=1 kW=2.74003 kvar=1.33015976772 Phases=2

New Load.rclvl5915 conn=wye bus1=rclv5915.1.2 kV=0.240178 Vminpu=0.95 Vmaxpu=1.05 model=1 kW=0.760008 kvar=0.370023806178 Phases=2

New Load.rclvl5916 conn=wye bus1=rclv5916.1.2 kV=0.240178 Vminpu=0.95 Vmaxpu=1.05 model=1 kW=2.74003 kvar=1.33015976772 Phases=2

New Load.rclvl5917 conn=wye bus1=rclv5917.1.2 kV=0.240178 Vminpu=0.95 Vmaxpu=1.05 model=1 kW=0.760008 kvar=0.370023806178 Phases=2

New Load.rclvl5910 conn=wye bus1=rclv5910.1.2 kV=0.240178 Vminpu=0.95 Vmaxpu=1.05 model=1 kW=0.760008 kvar=0.370023806178 Phases=2

New Load.rclvl5911 conn=wye bus1=rclv5911.1.2 kV=0.240178 Vminpu=0.95 Vmaxpu=1.05 model=1 kW=0.760008 kvar=0.370023806178 Phases=2

New Load.rclvl5912 conn=wye bus1=rclv5912.1.2 kV=0.240178 Vminpu=0.95 Vmaxpu=1.05 model=1 kW=1.66002 kvar=0.800219242954 Phases=2

New Load.rclvl5913 conn=wye bus1=rclv5913.1.2 kV=0.240178 Vminpu=0.95 Vmaxpu=1.05 model=1 kW=2.74003 kvar=1.33015976772 Phases=2

New Load.rclvl2546 conn=wye bus1=rclv2546.1.2 kV=0.240178 Vminpu=0.95 Vmaxpu=1.05 model=1 kW=0.760008 kvar=0.370023806178 Phases=2

New Load.rclvl2547 conn=wye bus1=rclv2547.1.2 kV=0.240178 Vminpu=0.95 Vmaxpu=1.05 model=1 kW=1.66002 kvar=0.800219242954 Phases=2

New Load.rclvl201 conn=wye bus1=rclv201.1.2 kV=0.240178 Vminpu=0.95 Vmaxpu=1.05 model=1 kW=0.760008 kvar=0.370023806178 Phases=2

New Load.rclvl2896 conn=wye bus1=rclv2897.1.2 kV=0.240178 Vminpu=0.95 Vmaxpu=1.05 model=1 kW=0.760008 kvar=0.370023806178 Phases=2

New Load.rclvl2549 conn=wye bus1=rclv2549.1.2 kV=0.240178 Vminpu=0.95 Vmaxpu=1.05 model=1 kW=1.66002 kvar=0.800219242954 Phases=2

New Load.rclvl4355 conn=wye bus1=rclv4355.1.2 kV=0.240178 Vminpu=0.95 Vmaxpu=1.05 model=1 kW=0.760008 kvar=0.370023806178 Phases=2

New Load.rclvl1444 conn=wye bus1=rclv1444.1.2 kV=0.240178 Vminpu=0.95 Vmaxpu=1.05 model=1 kW=0.760008 kvar=0.370023806178 Phases=2

New Load.rclvl4354 conn=wye bus1=rclv4354.1.2 kV=0.240178 Vminpu=0.95 Vmaxpu=1.05 model=1 kW=2.74003 kvar=1.33015976772 Phases=2

New Load.rclvl1277 conn=wye bus1=rclv1277.1.2 kV=0.240178 Vminpu=0.95 Vmaxpu=1.05 model=1 kW=1.66002 kvar=0.800219242954 Phases=2

New Load.rclvl1276 conn=wye bus1=rclv1276.1.2 kV=0.240178 Vminpu=0.95 Vmaxpu=1.05 model=1 kW=1.66002 kvar=0.800219242954 Phases=2

New Load.rclvl1271 conn=wye bus1=rclv1271.1.2 kV=0.240178 Vminpu=0.95 Vmaxpu=1.05 model=1 kW=1.66002 kvar=0.800219242954 Phases=2

New Load.rclvl1270 conn=wye bus1=rclv1270.1.2 kV=0.240178 Vminpu=0.95 Vmaxpu=1.05 model=1 kW=0.760008 kvar=0.370023806178 Phases=2

New Load.rclvl1445 conn=wye bus1=rclv1445.1.2 kV=0.240178 Vminpu=0.95 Vmaxpu=1.05 model=1 kW=1.66002 kvar=0.800219242954 Phases=2

New Load.rclvl1273 conn=wye bus1=rclv1273.1.2 kV=0.240178 Vminpu=0.95 Vmaxpu=1.05 model=1 kW=1.66002 kvar=0.800219242954 Phases=2

New Load.rclvl1272 conn=wye bus1=rclv1272.1.2 kV=0.240178 Vminpu=0.95 Vmaxpu=1.05 model=1 kW=0.760008 kvar=0.370023806178 Phases=2

New Load.rclvl1516 conn=wye bus1=rclv1516.1.2 kV=0.240178 Vminpu=0.95 Vmaxpu=1.05 model=1 kW=1.66002 kvar=0.800219242954 Phases=2

New Load.rclvl1279 conn=wye bus1=rclv1279.1.2 kV=0.240178 Vminpu=0.95 Vmaxpu=1.05 model=1 kW=1.66002 kvar=0.800219242954 Phases=2

New Load.rclvl1278 conn=wye bus1=rclv1278.1.2 kV=0.240178 Vminpu=0.95 Vmaxpu=1.05 model=1 kW=1.66002 kvar=0.800219242954 Phases=2

New Load.rclvl1110 conn=wye bus1=rclv1110.1.2 kV=0.240178 Vminpu=0.95 Vmaxpu=1.05 model=1 kW=0.760008 kvar=0.370023806178 Phases=2

New Load.rclvl4431 conn=wye bus1=rclv4431.1.2 kV=0.240178 Vminpu=0.95 Vmaxpu=1.05 model=1 kW=16.1102 kvar=7.79796251853 Phases=2

New Load.rclvl1112 conn=wye bus1=rclv1112.1.2 kV=0.240178 Vminpu=0.95 Vmaxpu=1.05 model=1 kW=1.66002 kvar=0.800219242954 Phases=2

New Load.rclvl1113 conn=wye bus1=rclv1113.1.2 kV=0.240178 Vminpu=0.95 Vmaxpu=1.05 model=1 kW=0.760008 kvar=0.370023806178 Phases=2

New Load.rclvl1114 conn=wye bus1=rclv1114.1.2 kV=0.240178 Vminpu=0.95 Vmaxpu=1.05 model=1 kW=1.66002 kvar=0.800219242954 Phases=2

New Load.rclvl4435 conn=wye bus1=rclv4435.1.2 kV=0.240178 Vminpu=0.95 Vmaxpu=1.05 model=1 kW=0.760008 kvar=0.370023806178 Phases=2

New Load.rclvl4436 conn=wye bus1=rclv4435.1.2 kV=0.240178 Vminpu=0.95 Vmaxpu=1.05 model=1 kW=0.760008 kvar=0.370023806178 Phases=2

New Load.rclvl1117 conn=wye bus1=rclv1117.1.2 kV=0.240178 Vminpu=0.95 Vmaxpu=1.05 model=1 kW=38.2504 kvar=18.5255142389 Phases=2

New Load.rclvl1118 conn=wye bus1=rclv1118.1.2 kV=0.240178 Vminpu=0.95 Vmaxpu=1.05 model=1 kW=1.66002 kvar=0.800219242954 Phases=2

New Load.rclvl1119 conn=wye bus1=rclv1119.1.2 kV=0.240178 Vminpu=0.95 Vmaxpu=1.05 model=1 kW=0.760008 kvar=0.370023806178 Phases=2

New Load.rclvl1443 conn=wye bus1=rclv1443.1.2 kV=0.240178 Vminpu=0.95 Vmaxpu=1.05 model=1 kW=0.760008 kvar=0.370023806178 Phases=2

New Load.rclvl2878 conn=wye bus1=rclv2878.1.2 kV=0.240178 Vminpu=0.95 Vmaxpu=1.05 model=1 kW=0.760008 kvar=0.370023806178 Phases=2

New Load.rclvl2879 conn=wye bus1=rclv2879.1.2 kV=0.240178 Vminpu=0.95 Vmaxpu=1.05 model=1 kW=1.66002 kvar=0.800219242954 Phases=2

New Load.rclvl2872 conn=wye bus1=rclv2872.1.2 kV=0.240178 Vminpu=0.95 Vmaxpu=1.05 model=1 kW=0.760008 kvar=0.370023806178 Phases=2

New Load.rclvl2873 conn=wye bus1=rclv2873.1.2 kV=0.240178 Vminpu=0.95 Vmaxpu=1.05 model=1 kW=1.66002 kvar=0.800219242954 Phases=2

New Load.rclvl2870 conn=wye bus1=rclv2870.1.2 kV=0.240178 Vminpu=0.95 Vmaxpu=1.05 model=1 kW=1.66002 kvar=0.800219242954 Phases=2

New Load.rclvl2871 conn=wye bus1=rclv2871.1.2 kV=0.240178 Vminpu=0.95 Vmaxpu=1.05 model=1 kW=38.2504 kvar=18.5255142389 Phases=2

New Load.rclvl2876 conn=wye bus1=rclv2876.1.2 kV=0.240178 Vminpu=0.95 Vmaxpu=1.05 model=1 kW=2.74003 kvar=1.33015976772 Phases=2

New Load.rclvl2877 conn=wye bus1=rclv2877.1.2 kV=0.240178 Vminpu=0.95 Vmaxpu=1.05 model=1 kW=1.66002 kvar=0.800219242954 Phases=2

New Load.rclvl2874 conn=wye bus1=rclv2874.1.2 kV=0.240178 Vminpu=0.95 Vmaxpu=1.05 model=1 kW=1.66002 kvar=0.800219242954 Phases=2

New Load.rclvl2875 conn=wye bus1=rclv2875.1.2 kV=0.240178 Vminpu=0.95 Vmaxpu=1.05 model=1 kW=2.74003 kvar=1.33015976772 Phases=2

New Load.rclvl3440 conn=wye bus1=rclv3440.1.2 kV=0.240178 Vminpu=0.95 Vmaxpu=1.05 model=1 kW=0.760008 kvar=0.370023806178 Phases=2

New Load.rclvl1378 conn=wye bus1=rclv1378.1.2 kV=0.240178 Vminpu=0.95 Vmaxpu=1.05 model=1 kW=0.760008 kvar=0.370023806178 Phases=2

New Load.rclvl1379 conn=wye bus1=rclv1379.1.2 kV=0.240178 Vminpu=0.95 Vmaxpu=1.05 model=1 kW=2.74003 kvar=1.33015976772 Phases=2

New Load.rclvl3441 conn=wye bus1=rclv3441.1.2 kV=0.240178 Vminpu=0.95 Vmaxpu=1.05 model=1 kW=1.66002 kvar=0.800219242954 Phases=2

New Load.rclvl1374 conn=wye bus1=rclv1374.1.2 kV=0.240178 Vminpu=0.95 Vmaxpu=1.05 model=1 kW=1.66002 kvar=0.800219242954 Phases=2

New Load.rclvl1375 conn=wye bus1=rclv1375.1.2 kV=0.240178 Vminpu=0.95 Vmaxpu=1.05 model=1 kW=38.2504 kvar=18.5255142389 Phases=2

New Load.rclvl1376 conn=wye bus1=rclv1376.1.2 kV=0.240178 Vminpu=0.95 Vmaxpu=1.05 model=1 kW=0.760008 kvar=0.370023806178 Phases=2

New Load.rclvl1377 conn=wye bus1=rclv1377.1.2 kV=0.240178 Vminpu=0.95 Vmaxpu=1.05 model=1 kW=1.66002 kvar=0.800219242954 Phases=2

New Load.rclvl1370 conn=wye bus1=rclv1370.1.2 kV=0.240178 Vminpu=0.95 Vmaxpu=1.05 model=1 kW=0.760008 kvar=0.370023806178 Phases=2

New Load.rclvl1371 conn=wye bus1=rclv1371.1.2 kV=0.240178 Vminpu=0.95 Vmaxpu=1.05 model=1 kW=0.760008 kvar=0.370023806178 Phases=2

New Load.rclvl1372 conn=wye bus1=rclv1372.1.2 kV=0.240178 Vminpu=0.95 Vmaxpu=1.05 model=1 kW=1.66002 kvar=0.800219242954 Phases=2

New Load.rclvl1373 conn=wye bus1=rclv1373.1.2 kV=0.240178 Vminpu=0.95 Vmaxpu=1.05 model=1 kW=1.66002 kvar=0.800219242954 Phases=2

New Load.rclvl1095 conn=wye bus1=rclv1095.1.2 kV=0.240178 Vminpu=0.95 Vmaxpu=1.05 model=1 kW=2.74003 kvar=1.33015976772 Phases=2

New Load.rclvl3443 conn=wye bus1=rclv3443.1.2 kV=0.240178 Vminpu=0.95 Vmaxpu=1.05 model=1 kW=1.66002 kvar=0.800219242954 Phases=2

New Load.rclvl4574 conn=wye bus1=rclv4574.1.2 kV=0.240178 Vminpu=0.95 Vmaxpu=1.05 model=1 kW=0.760008 kvar=0.370023806178 Phases=2

New Load.rclvl3444 conn=wye bus1=rclv3446.1.2 kV=0.240178 Vminpu=0.95 Vmaxpu=1.05 model=1 kW=2.74003 kvar=1.33015976772 Phases=2

New Load.rclvl4577 conn=wye bus1=rclv4577.1.2 kV=0.240178 Vminpu=0.95 Vmaxpu=1.05 model=1 kW=1.66002 kvar=0.800219242954 Phases=2

New Load.rclvl3445 conn=wye bus1=rclv3446.1.2 kV=0.240178 Vminpu=0.95 Vmaxpu=1.05 model=1 kW=1.66002 kvar=0.800219242954 Phases=2

New Load.rclvl1096 conn=wye bus1=rclv1096.1.2 kV=0.240178 Vminpu=0.95 Vmaxpu=1.05 model=1 kW=2.74003 kvar=1.33015976772 Phases=2

New Load.rclvl3446 conn=wye bus1=rclv3446.1.2 kV=0.240178 Vminpu=0.95 Vmaxpu=1.05 model=1 kW=2.74003 kvar=1.33015976772 Phases=2

New Load.rclvl1091 conn=wye bus1=rclv1091.1.2 kV=0.240178 Vminpu=0.95 Vmaxpu=1.05 model=1 kW=2.74003 kvar=1.33015976772 Phases=2

New Load.rclvl3447 conn=wye bus1=rclv3446.1.2 kV=0.240178 Vminpu=0.95 Vmaxpu=1.05 model=1 kW=1.66002 kvar=0.800219242954 Phases=2

New Load.rclvl1090 conn=wye bus1=rclv1090.1.2 kV=0.240178 Vminpu=0.95 Vmaxpu=1.05 model=1 kW=0.760008 kvar=0.370023806178 Phases=2

New Load.rclvl1093 conn=wye bus1=rclv1093.1.2 kV=0.240178 Vminpu=0.95 Vmaxpu=1.05 model=1 kW=1.66002 kvar=0.800219242954 Phases=2

New Load.rclvl4572 conn=wye bus1=rclv4572.1.2 kV=0.240178 Vminpu=0.95 Vmaxpu=1.05 model=1 kW=1.66002 kvar=0.800219242954 Phases=2

New Load.rclvl934 conn=wye bus1=rclv934.1.2 kV=0.240178 Vminpu=0.95 Vmaxpu=1.05 model=1 kW=1.66002 kvar=0.800219242954 Phases=2

New Load.rclvl935 conn=wye bus1=rclv935.1.2 kV=0.240178 Vminpu=0.95 Vmaxpu=1.05 model=1 kW=1.66002 kvar=0.800219242954 Phases=2

New Load.rclvl936 conn=wye bus1=rclv936.1.2 kV=0.240178 Vminpu=0.95 Vmaxpu=1.05 model=1 kW=0.760008 kvar=0.370023806178 Phases=2

New Load.rclvl937 conn=wye bus1=rclv937.1.2 kV=0.240178 Vminpu=0.95 Vmaxpu=1.05 model=1 kW=1.66002 kvar=0.800219242954 Phases=2

New Load.rclvl930 conn=wye bus1=rclv930.1.2 kV=0.240178 Vminpu=0.95 Vmaxpu=1.05 model=1 kW=1.66002 kvar=0.800219242954 Phases=2

New Load.rclvl931 conn=wye bus1=rclv931.1.2 kV=0.240178 Vminpu=0.95 Vmaxpu=1.05 model=1 kW=1.66002 kvar=0.800219242954 Phases=2

New Load.rclvl932 conn=wye bus1=rclv932.1.2 kV=0.240178 Vminpu=0.95 Vmaxpu=1.05 model=1 kW=1.66002 kvar=0.800219242954 Phases=2

New Load.rclvl933 conn=wye bus1=rclv933.1.2 kV=0.240178 Vminpu=0.95 Vmaxpu=1.05 model=1 kW=38.2504 kvar=18.5255142389 Phases=2

New Load.rclvl938 conn=wye bus1=rclv938.1.2 kV=0.240178 Vminpu=0.95 Vmaxpu=1.05 model=1 kW=2.74003 kvar=1.33015976772 Phases=2

New Load.rclvl939 conn=wye bus1=rclv939.1.2 kV=0.240178 Vminpu=0.95 Vmaxpu=1.05 model=1 kW=1.66002 kvar=0.800219242954 Phases=2

New Load.rclvl2298 conn=wye bus1=rclv2298.1.2 kV=0.240178 Vminpu=0.95 Vmaxpu=1.05 model=1 kW=2.74003 kvar=1.33015976772 Phases=2

New Load.rclvl2299 conn=wye bus1=rclv2299.1.2 kV=0.240178 Vminpu=0.95 Vmaxpu=1.05 model=1 kW=2.74003 kvar=1.33015976772 Phases=2

New Load.rclvl2296 conn=wye bus1=rclv2296.1.2 kV=0.240178 Vminpu=0.95 Vmaxpu=1.05 model=1 kW=38.2504 kvar=18.5255142389 Phases=2

New Load.rclvl2297 conn=wye bus1=rclv2297.1.2 kV=0.240178 Vminpu=0.95 Vmaxpu=1.05 model=1 kW=2.74003 kvar=1.33015976772 Phases=2

New Load.rclvl2294 conn=wye bus1=rclv2294.1.2 kV=0.240178 Vminpu=0.95 Vmaxpu=1.05 model=1 kW=38.2504 kvar=18.5255142389 Phases=2

New Load.rclvl2295 conn=wye bus1=rclv2295.1.2 kV=0.240178 Vminpu=0.95 Vmaxpu=1.05 model=1 kW=0.760008 kvar=0.370023806178 Phases=2

New Load.rclvl2292 conn=wye bus1=rclv2292.1.2 kV=0.240178 Vminpu=0.95 Vmaxpu=1.05 model=1 kW=1.66002 kvar=0.800219242954 Phases=2

New Load.rclvl2293 conn=wye bus1=rclv2293.1.2 kV=0.240178 Vminpu=0.95 Vmaxpu=1.05 model=1 kW=0.760008 kvar=0.370023806178 Phases=2

New Load.rclvl2290 conn=wye bus1=rclv2290.1.2 kV=0.240178 Vminpu=0.95 Vmaxpu=1.05 model=1 kW=0.760008 kvar=0.370023806178 Phases=2

New Load.rclvl2291 conn=wye bus1=rclv2291.1.2 kV=0.240178 Vminpu=0.95 Vmaxpu=1.05 model=1 kW=1.66002 kvar=0.800219242954 Phases=2

New Load.rclvl1808 conn=wye bus1=rclv1808.1.2 kV=0.240178 Vminpu=0.95 Vmaxpu=1.05 model=1 kW=1.66002 kvar=0.800219242954 Phases=2

New Load.rclvl1809 conn=wye bus1=rclv1809.1.2 kV=0.240178 Vminpu=0.95 Vmaxpu=1.05 model=1 kW=1.66002 kvar=0.800219242954 Phases=2

New Load.rclvl1806 conn=wye bus1=rclv1806.1.2 kV=0.240178 Vminpu=0.95 Vmaxpu=1.05 model=1 kW=0.760008 kvar=0.370023806178 Phases=2

New Load.rclvl1807 conn=wye bus1=rclv1807.1.2 kV=0.240178 Vminpu=0.95 Vmaxpu=1.05 model=1 kW=16.1102 kvar=7.79796251853 Phases=2

New Load.rclvl1804 conn=wye bus1=rclv1804.1.2 kV=0.240178 Vminpu=0.95 Vmaxpu=1.05 model=1 kW=0.760008 kvar=0.370023806178 Phases=2

New Load.rclvl1805 conn=wye bus1=rclv1805.1.2 kV=0.240178 Vminpu=0.95 Vmaxpu=1.05 model=1 kW=0.760008 kvar=0.370023806178 Phases=2

New Load.rclvl1802 conn=wye bus1=rclv1802.1.2 kV=0.240178 Vminpu=0.95 Vmaxpu=1.05 model=1 kW=1.66002 kvar=0.800219242954 Phases=2

New Load.rclvl1803 conn=wye bus1=rclv1803.1.2 kV=0.240178 Vminpu=0.95 Vmaxpu=1.05 model=1 kW=1.66002 kvar=0.800219242954 Phases=2

New Load.rclvl1800 conn=wye bus1=rclv1800.1.2 kV=0.240178 Vminpu=0.95 Vmaxpu=1.05 model=1 kW=1.66002 kvar=0.800219242954 Phases=2

New Load.rclvl1801 conn=wye bus1=rclv1801.1.2 kV=0.240178 Vminpu=0.95 Vmaxpu=1.05 model=1 kW=0.760008 kvar=0.370023806178 Phases=2

New Load.rclvl2762 conn=wye bus1=rclv2762.1.2 kV=0.240178 Vminpu=0.95 Vmaxpu=1.05 model=1 kW=2.74003 kvar=1.33015976772 Phases=2

New Load.rclvl2763 conn=wye bus1=rclv2763.1.2 kV=0.240178 Vminpu=0.95 Vmaxpu=1.05 model=1 kW=1.66002 kvar=0.800219242954 Phases=2

New Load.rclvl2092 conn=wye bus1=rclv2092.1.2 kV=0.240178 Vminpu=0.95 Vmaxpu=1.05 model=1 kW=1.66002 kvar=0.800219242954 Phases=2

New Load.rclvl5479 conn=wye bus1=rclv5479.1.2 kV=0.240178 Vminpu=0.95 Vmaxpu=1.05 model=1 kW=0.760008 kvar=0.370023806178 Phases=2

New Load.rclvl2761 conn=wye bus1=rclv2761.1.2 kV=0.240178 Vminpu=0.95 Vmaxpu=1.05 model=1 kW=0.760008 kvar=0.370023806178 Phases=2

New Load.rclvl5473 conn=wye bus1=rclv5473.1.2 kV=0.240178 Vminpu=0.95 Vmaxpu=1.05 model=1 kW=0.760008 kvar=0.370023806178 Phases=2

New Load.rclvl2766 conn=wye bus1=rclv2766.1.2 kV=0.240178 Vminpu=0.95 Vmaxpu=1.05 model=1 kW=0.760008 kvar=0.370023806178 Phases=2

New Load.rclvl5471 conn=wye bus1=rclv5471.1.2 kV=0.240178 Vminpu=0.95 Vmaxpu=1.05 model=1 kW=0.760008 kvar=0.370023806178 Phases=2

New Load.rclvl5470 conn=wye bus1=rclv5469.1.2 kV=0.240178 Vminpu=0.95 Vmaxpu=1.05 model=1 kW=2.74003 kvar=1.33015976772 Phases=2

New Load.rclvl5477 conn=wye bus1=rclv5477.1.2 kV=0.240178 Vminpu=0.95 Vmaxpu=1.05 model=1 kW=1.66002 kvar=0.800219242954 Phases=2

New Load.rclvl5476 conn=wye bus1=rclv5476.1.2 kV=0.240178 Vminpu=0.95 Vmaxpu=1.05 model=1 kW=0.760008 kvar=0.370023806178 Phases=2

New Load.rclvl5475 conn=wye bus1=rclv5475.1.2 kV=0.240178 Vminpu=0.95 Vmaxpu=1.05 model=1 kW=1.66002 kvar=0.800219242954 Phases=2

New Load.rclvl2767 conn=wye bus1=rclv2767.1.2 kV=0.240178 Vminpu=0.95 Vmaxpu=1.05 model=1 kW=0.760008 kvar=0.370023806178 Phases=2

New Load.rclvl2128 conn=wye bus1=rclv2128.1.2 kV=0.240178 Vminpu=0.95 Vmaxpu=1.05 model=1 kW=0.760008 kvar=0.370023806178 Phases=2

New Load.rclvl2129 conn=wye bus1=rclv2129.1.2 kV=0.240178 Vminpu=0.95 Vmaxpu=1.05 model=1 kW=0.760008 kvar=0.370023806178 Phases=2

New Load.rclvl2764 conn=wye bus1=rclv2764.1.2 kV=0.240178 Vminpu=0.95 Vmaxpu=1.05 model=1 kW=1.66002 kvar=0.800219242954 Phases=2

New Load.rclvl5775 conn=wye bus1=rclv5775.1.2 kV=0.240178 Vminpu=0.95 Vmaxpu=1.05 model=1 kW=2.74003 kvar=1.33015976772 Phases=2

New Load.rclvl2120 conn=wye bus1=rclv2120.1.2 kV=0.240178 Vminpu=0.95 Vmaxpu=1.05 model=1 kW=0.760008 kvar=0.370023806178 Phases=2

New Load.rclvl2121 conn=wye bus1=rclv2121.1.2 kV=0.240178 Vminpu=0.95 Vmaxpu=1.05 model=1 kW=1.66002 kvar=0.800219242954 Phases=2

New Load.rclvl2122 conn=wye bus1=rclv2122.1.2 kV=0.240178 Vminpu=0.95 Vmaxpu=1.05 model=1 kW=1.66002 kvar=0.800219242954 Phases=2

New Load.rclvl2123 conn=wye bus1=rclv2123.1.2 kV=0.240178 Vminpu=0.95 Vmaxpu=1.05 model=1 kW=2.74003 kvar=1.33015976772 Phases=2

New Load.rclvl2124 conn=wye bus1=rclv2124.1.2 kV=0.240178 Vminpu=0.95 Vmaxpu=1.05 model=1 kW=0.760008 kvar=0.370023806178 Phases=2

New Load.rclvl2125 conn=wye bus1=rclv2125.1.2 kV=0.240178 Vminpu=0.95 Vmaxpu=1.05 model=1 kW=1.66002 kvar=0.800219242954 Phases=2

New Load.rclvl2126 conn=wye bus1=rclv2126.1.2 kV=0.240178 Vminpu=0.95 Vmaxpu=1.05 model=1 kW=1.66002 kvar=0.800219242954 Phases=2

New Load.rclvl2127 conn=wye bus1=rclv2127.1.2 kV=0.240178 Vminpu=0.95 Vmaxpu=1.05 model=1 kW=0.760008 kvar=0.370023806178 Phases=2

New Load.rclvl5777 conn=wye bus1=rclv5777.1.2 kV=0.240178 Vminpu=0.95 Vmaxpu=1.05 model=1 kW=16.1102 kvar=7.79796251853 Phases=2

New Load.rclvl5770 conn=wye bus1=rclv5770.1.2 kV=0.240178 Vminpu=0.95 Vmaxpu=1.05 model=1 kW=2.74003 kvar=1.33015976772 Phases=2

New Load.rclvl5771 conn=wye bus1=rclv5771.1.2 kV=0.240178 Vminpu=0.95 Vmaxpu=1.05 model=1 kW=1.66002 kvar=0.800219242954 Phases=2

New Load.rclvl2769 conn=wye bus1=rclv2769.1.2 kV=0.240178 Vminpu=0.95 Vmaxpu=1.05 model=1 kW=1.66002 kvar=0.800219242954 Phases=2

New Load.rclvl5772 conn=wye bus1=rclv5772.1.2 kV=0.240178 Vminpu=0.95 Vmaxpu=1.05 model=1 kW=2.74003 kvar=1.33015976772 Phases=2

New Load.rclvl5773 conn=wye bus1=rclv5773.1.2 kV=0.240178 Vminpu=0.95 Vmaxpu=1.05 model=1 kW=0.760008 kvar=0.370023806178 Phases=2

New Load.rclvl668 conn=wye bus1=rclv668.1.2 kV=0.240178 Vminpu=0.95 Vmaxpu=1.05 model=1 kW=1.66002 kvar=0.800219242954 Phases=2

New Load.rclvl669 conn=wye bus1=rclv669.1.2 kV=0.240178 Vminpu=0.95 Vmaxpu=1.05 model=1 kW=0.760008 kvar=0.370023806178 Phases=2

New Load.rclvl664 conn=wye bus1=rclv664.1.2 kV=0.240178 Vminpu=0.95 Vmaxpu=1.05 model=1 kW=1.66002 kvar=0.800219242954 Phases=2

New Load.rclvl665 conn=wye bus1=rclv665.1.2 kV=0.240178 Vminpu=0.95 Vmaxpu=1.05 model=1 kW=1.66002 kvar=0.800219242954 Phases=2

New Load.rclvl666 conn=wye bus1=rclv666.1.2 kV=0.240178 Vminpu=0.95 Vmaxpu=1.05 model=1 kW=0.760008 kvar=0.370023806178 Phases=2

New Load.rclvl667 conn=wye bus1=rclv667.1.2 kV=0.240178 Vminpu=0.95 Vmaxpu=1.05 model=1 kW=0.760008 kvar=0.370023806178 Phases=2

New Load.rclvl660 conn=wye bus1=rclv660.1.2 kV=0.240178 Vminpu=0.95 Vmaxpu=1.05 model=1 kW=1.66002 kvar=0.800219242954 Phases=2

New Load.rclvl661 conn=wye bus1=rclv661.1.2 kV=0.240178 Vminpu=0.95 Vmaxpu=1.05 model=1 kW=1.66002 kvar=0.800219242954 Phases=2

New Load.rclvl662 conn=wye bus1=rclv662.1.2 kV=0.240178 Vminpu=0.95 Vmaxpu=1.05 model=1 kW=0.760008 kvar=0.370023806178 Phases=2

New Load.rclvl663 conn=wye bus1=rclv663.1.2 kV=0.240178 Vminpu=0.95 Vmaxpu=1.05 model=1 kW=1.66002 kvar=0.800219242954 Phases=2

New Load.rclvl4988 conn=wye bus1=rclv4988.1.2 kV=0.240178 Vminpu=0.95 Vmaxpu=1.05 model=1 kW=0.760008 kvar=0.370023806178 Phases=2

New Load.rclvl4989 conn=wye bus1=rclv4989.1.2 kV=0.240178 Vminpu=0.95 Vmaxpu=1.05 model=1 kW=1.66002 kvar=0.800219242954 Phases=2

New Load.rclvl1410 conn=wye bus1=rclv1410.1.2 kV=0.240178 Vminpu=0.95 Vmaxpu=1.05 model=1 kW=1.66002 kvar=0.800219242954 Phases=2

New Load.rclvl4980 conn=wye bus1=rclv4980.1.2 kV=0.240178 Vminpu=0.95 Vmaxpu=1.05 model=1 kW=0.760008 kvar=0.370023806178 Phases=2

New Load.rclvl4981 conn=wye bus1=rclv4981.1.2 kV=0.240178 Vminpu=0.95 Vmaxpu=1.05 model=1 kW=0.760008 kvar=0.370023806178 Phases=2

New Load.rclvl4982 conn=wye bus1=rclv4982.1.2 kV=0.240178 Vminpu=0.95 Vmaxpu=1.05 model=1 kW=0.760008 kvar=0.370023806178 Phases=2

New Load.rclvl4983 conn=wye bus1=rclv4983.1.2 kV=0.240178 Vminpu=0.95 Vmaxpu=1.05 model=1 kW=1.66002 kvar=0.800219242954 Phases=2

New Load.rclvl4984 conn=wye bus1=rclv4984.1.2 kV=0.240178 Vminpu=0.95 Vmaxpu=1.05 model=1 kW=0.760008 kvar=0.370023806178 Phases=2

New Load.rclvl4985 conn=wye bus1=rclv4985.1.2 kV=0.240178 Vminpu=0.95 Vmaxpu=1.05 model=1 kW=1.66002 kvar=0.800219242954 Phases=2

New Load.rclvl4986 conn=wye bus1=rclv4986.1.2 kV=0.240178 Vminpu=0.95 Vmaxpu=1.05 model=1 kW=0.760008 kvar=0.370023806178 Phases=2

New Load.rclvl4987 conn=wye bus1=rclv4987.1.2 kV=0.240178 Vminpu=0.95 Vmaxpu=1.05 model=1 kW=0.760008 kvar=0.370023806178 Phases=2

New Load.rclvl598 conn=wye bus1=rclv598.1.2 kV=0.240178 Vminpu=0.95 Vmaxpu=1.05 model=1 kW=1.66002 kvar=0.800219242954 Phases=2

New Load.rclvl599 conn=wye bus1=rclv599.1.2 kV=0.240178 Vminpu=0.95 Vmaxpu=1.05 model=1 kW=38.2504 kvar=18.5255142389 Phases=2

New Load.rclvl592 conn=wye bus1=rclv592.1.2 kV=0.240178 Vminpu=0.95 Vmaxpu=1.05 model=1 kW=0.760008 kvar=0.370023806178 Phases=2

New Load.rclvl593 conn=wye bus1=rclv593.1.2 kV=0.240178 Vminpu=0.95 Vmaxpu=1.05 model=1 kW=0.760008 kvar=0.370023806178 Phases=2

New Load.rclvl590 conn=wye bus1=rclv590.1.2 kV=0.240178 Vminpu=0.95 Vmaxpu=1.05 model=1 kW=0.760008 kvar=0.370023806178 Phases=2

New Load.rclvl591 conn=wye bus1=rclv591.1.2 kV=0.240178 Vminpu=0.95 Vmaxpu=1.05 model=1 kW=1.66002 kvar=0.800219242954 Phases=2

New Load.rclvl596 conn=wye bus1=rclv596.1.2 kV=0.240178 Vminpu=0.95 Vmaxpu=1.05 model=1 kW=1.66002 kvar=0.800219242954 Phases=2

New Load.rclvl597 conn=wye bus1=rclv597.1.2 kV=0.240178 Vminpu=0.95 Vmaxpu=1.05 model=1 kW=1.66002 kvar=0.800219242954 Phases=2

New Load.rclvl594 conn=wye bus1=rclv594.1.2 kV=0.240178 Vminpu=0.95 Vmaxpu=1.05 model=1 kW=1.66002 kvar=0.800219242954 Phases=2

New Load.rclvl595 conn=wye bus1=rclv595.1.2 kV=0.240178 Vminpu=0.95 Vmaxpu=1.05 model=1 kW=1.66002 kvar=0.800219242954 Phases=2

New Load.rclvl1417 conn=wye bus1=rclv1417.1.2 kV=0.240178 Vminpu=0.95 Vmaxpu=1.05 model=1 kW=0.760008 kvar=0.370023806178 Phases=2

New Load.rclvl1416 conn=wye bus1=rclv1416.1.2 kV=0.240178 Vminpu=0.95 Vmaxpu=1.05 model=1 kW=0.760008 kvar=0.370023806178 Phases=2

New Load.rclvl1419 conn=wye bus1=rclv1419.1.2 kV=0.240178 Vminpu=0.95 Vmaxpu=1.05 model=1 kW=38.2504 kvar=18.5255142389 Phases=2

New Load.rclvl1418 conn=wye bus1=rclv1418.1.2 kV=0.240178 Vminpu=0.95 Vmaxpu=1.05 model=1 kW=0.760008 kvar=0.370023806178 Phases=2

New Load.rclvl3459 conn=wye bus1=rclv3459.1.2 kV=0.240178 Vminpu=0.95 Vmaxpu=1.05 model=1 kW=0.760008 kvar=0.370023806178 Phases=2

New Load.rclvl3458 conn=wye bus1=rclv3458.1.2 kV=0.240178 Vminpu=0.95 Vmaxpu=1.05 model=1 kW=0.760008 kvar=0.370023806178 Phases=2

New Load.rclvl3457 conn=wye bus1=rclv3457.1.2 kV=0.240178 Vminpu=0.95 Vmaxpu=1.05 model=1 kW=1.66002 kvar=0.800219242954 Phases=2

New Load.rclvl3456 conn=wye bus1=rclv3456.1.2 kV=0.240178 Vminpu=0.95 Vmaxpu=1.05 model=1 kW=0.760008 kvar=0.370023806178 Phases=2

New Load.rclvl3455 conn=wye bus1=rclv3455.1.2 kV=0.240178 Vminpu=0.95 Vmaxpu=1.05 model=1 kW=2.74003 kvar=1.33015976772 Phases=2

New Load.rclvl3454 conn=wye bus1=rclv3454.1.2 kV=0.240178 Vminpu=0.95 Vmaxpu=1.05 model=1 kW=2.74003 kvar=1.33015976772 Phases=2

New Load.rclvl3453 conn=wye bus1=rclv3453.1.2 kV=0.240178 Vminpu=0.95 Vmaxpu=1.05 model=1 kW=1.66002 kvar=0.800219242954 Phases=2

New Load.rclvl3452 conn=wye bus1=rclv3452.1.2 kV=0.240178 Vminpu=0.95 Vmaxpu=1.05 model=1 kW=1.66002 kvar=0.800219242954 Phases=2

New Load.rclvl3451 conn=wye bus1=rclv3451.1.2 kV=0.240178 Vminpu=0.95 Vmaxpu=1.05 model=1 kW=1.66002 kvar=0.800219242954 Phases=2

New Load.rclvl3450 conn=wye bus1=rclv3450.1.2 kV=0.240178 Vminpu=0.95 Vmaxpu=1.05 model=1 kW=2.74003 kvar=1.33015976772 Phases=2

New Load.rclvl3181 conn=wye bus1=rclv3181.1.2 kV=0.240178 Vminpu=0.95 Vmaxpu=1.05 model=1 kW=1.66002 kvar=0.800219242954 Phases=2

New Load.rclvl3180 conn=wye bus1=rclv3180.1.2 kV=0.240178 Vminpu=0.95 Vmaxpu=1.05 model=1 kW=1.66002 kvar=0.800219242954 Phases=2

New Load.rclvl3183 conn=wye bus1=rclv3183.1.2 kV=0.240178 Vminpu=0.95 Vmaxpu=1.05 model=1 kW=1.66002 kvar=0.800219242954 Phases=2

New Load.rclvl3182 conn=wye bus1=rclv3182.1.2 kV=0.240178 Vminpu=0.95 Vmaxpu=1.05 model=1 kW=1.66002 kvar=0.800219242954 Phases=2

New Load.rclvl3185 conn=wye bus1=rclv3185.1.2 kV=0.240178 Vminpu=0.95 Vmaxpu=1.05 model=1 kW=2.74003 kvar=1.33015976772 Phases=2

New Load.rclvl3184 conn=wye bus1=rclv3184.1.2 kV=0.240178 Vminpu=0.95 Vmaxpu=1.05 model=1 kW=2.74003 kvar=1.33015976772 Phases=2

New Load.rclvl3187 conn=wye bus1=rclv3187.1.2 kV=0.240178 Vminpu=0.95 Vmaxpu=1.05 model=1 kW=1.66002 kvar=0.800219242954 Phases=2

New Load.rclvl3186 conn=wye bus1=rclv3186.1.2 kV=0.240178 Vminpu=0.95 Vmaxpu=1.05 model=1 kW=0.760008 kvar=0.370023806178 Phases=2

New Load.rclvl3189 conn=wye bus1=rclv3189.1.2 kV=0.240178 Vminpu=0.95 Vmaxpu=1.05 model=1 kW=1.66002 kvar=0.800219242954 Phases=2

New Load.rclvl3188 conn=wye bus1=rclv3188.1.2 kV=0.240178 Vminpu=0.95 Vmaxpu=1.05 model=1 kW=2.74003 kvar=1.33015976772 Phases=2

New Load.rclvl3990 conn=wye bus1=rclv3991.1.2 kV=0.240178 Vminpu=0.95 Vmaxpu=1.05 model=1 kW=1.66002 kvar=0.800219242954 Phases=2

New Load.rclvl3991 conn=wye bus1=rclv3991.1.2 kV=0.240178 Vminpu=0.95 Vmaxpu=1.05 model=1 kW=1.66002 kvar=0.800219242954 Phases=2

New Load.rclvl1894 conn=wye bus1=rclv1894.1.2 kV=0.240178 Vminpu=0.95 Vmaxpu=1.05 model=1 kW=1.66002 kvar=0.800219242954 Phases=2

New Load.rclvl3996 conn=wye bus1=rclv3996.1.2 kV=0.240178 Vminpu=0.95 Vmaxpu=1.05 model=1 kW=0.760008 kvar=0.370023806178 Phases=2

New Load.rclvl3997 conn=wye bus1=rclv3997.1.2 kV=0.240178 Vminpu=0.95 Vmaxpu=1.05 model=1 kW=1.66002 kvar=0.800219242954 Phases=2

New Load.rclvl3994 conn=wye bus1=rclv3994.1.2 kV=0.240178 Vminpu=0.95 Vmaxpu=1.05 model=1 kW=2.74003 kvar=1.33015976772 Phases=2

New Load.rclvl3995 conn=wye bus1=rclv3995.1.2 kV=0.240178 Vminpu=0.95 Vmaxpu=1.05 model=1 kW=0.760008 kvar=0.370023806178 Phases=2

New Load.rclvl3989 conn=wye bus1=rclv3989.1.2 kV=0.240178 Vminpu=0.95 Vmaxpu=1.05 model=1 kW=2.74003 kvar=1.33015976772 Phases=2

New Load.rclvl3988 conn=wye bus1=rclv3988.1.2 kV=0.240178 Vminpu=0.95 Vmaxpu=1.05 model=1 kW=1.66002 kvar=0.800219242954 Phases=2

New Load.rclvl3239 conn=wye bus1=rclv3239.1.2 kV=0.240178 Vminpu=0.95 Vmaxpu=1.05 model=1 kW=1.66002 kvar=0.800219242954 Phases=2

New Load.rclvl3238 conn=wye bus1=rclv3238.1.2 kV=0.240178 Vminpu=0.95 Vmaxpu=1.05 model=1 kW=1.66002 kvar=0.800219242954 Phases=2

New Load.rclvl3233 conn=wye bus1=rclv3233.1.2 kV=0.240178 Vminpu=0.95 Vmaxpu=1.05 model=1 kW=1.66002 kvar=0.800219242954 Phases=2

New Load.rclvl3232 conn=wye bus1=rclv3232.1.2 kV=0.240178 Vminpu=0.95 Vmaxpu=1.05 model=1 kW=38.2504 kvar=18.5255142389 Phases=2

New Load.rclvl3231 conn=wye bus1=rclv3231.1.2 kV=0.240178 Vminpu=0.95 Vmaxpu=1.05 model=1 kW=1.66002 kvar=0.800219242954 Phases=2

New Load.rclvl3230 conn=wye bus1=rclv3230.1.2 kV=0.240178 Vminpu=0.95 Vmaxpu=1.05 model=1 kW=16.1102 kvar=7.79796251853 Phases=2

New Load.rclvl3237 conn=wye bus1=rclv3237.1.2 kV=0.240178 Vminpu=0.95 Vmaxpu=1.05 model=1 kW=1.66002 kvar=0.800219242954 Phases=2

New Load.rclvl3236 conn=wye bus1=rclv3236.1.2 kV=0.240178 Vminpu=0.95 Vmaxpu=1.05 model=1 kW=1.66002 kvar=0.800219242954 Phases=2

New Load.rclvl3235 conn=wye bus1=rclv3235.1.2 kV=0.240178 Vminpu=0.95 Vmaxpu=1.05 model=1 kW=2.74003 kvar=1.33015976772 Phases=2

New Load.rclvl3234 conn=wye bus1=rclv3234.1.2 kV=0.240178 Vminpu=0.95 Vmaxpu=1.05 model=1 kW=1.66002 kvar=0.800219242954 Phases=2

New Load.rclvl6192 conn=wye bus1=rclv6192.1.2 kV=0.240178 Vminpu=0.95 Vmaxpu=1.05 model=1 kW=1.66002 kvar=0.800219242954 Phases=2

New Load.rclvl1583 conn=wye bus1=rclv1583.1.2 kV=0.240178 Vminpu=0.95 Vmaxpu=1.05 model=1 kW=1.66002 kvar=0.800219242954 Phases=2

New Load.rclvl1582 conn=wye bus1=rclv1582.1.2 kV=0.240178 Vminpu=0.95 Vmaxpu=1.05 model=1 kW=1.66002 kvar=0.800219242954 Phases=2

New Load.rclvl1581 conn=wye bus1=rclv1581.1.2 kV=0.240178 Vminpu=0.95 Vmaxpu=1.05 model=1 kW=2.74003 kvar=1.33015976772 Phases=2

New Load.rclvl1580 conn=wye bus1=rclv1580.1.2 kV=0.240178 Vminpu=0.95 Vmaxpu=1.05 model=1 kW=1.66002 kvar=0.800219242954 Phases=2

New Load.rclvl1587 conn=wye bus1=rclv1587.1.2 kV=0.240178 Vminpu=0.95 Vmaxpu=1.05 model=1 kW=0.760008 kvar=0.370023806178 Phases=2

New Load.rclvl1586 conn=wye bus1=rclv1586.1.2 kV=0.240178 Vminpu=0.95 Vmaxpu=1.05 model=1 kW=1.66002 kvar=0.800219242954 Phases=2

New Load.rclvl1585 conn=wye bus1=rclv1585.1.2 kV=0.240178 Vminpu=0.95 Vmaxpu=1.05 model=1 kW=2.74003 kvar=1.33015976772 Phases=2

New Load.rclvl1584 conn=wye bus1=rclv1584.1.2 kV=0.240178 Vminpu=0.95 Vmaxpu=1.05 model=1 kW=1.66002 kvar=0.800219242954 Phases=2

New Load.rclvl1589 conn=wye bus1=rclv1589.1.2 kV=0.240178 Vminpu=0.95 Vmaxpu=1.05 model=1 kW=0.760008 kvar=0.370023806178 Phases=2

New Load.rclvl1588 conn=wye bus1=rclv1588.1.2 kV=0.240178 Vminpu=0.95 Vmaxpu=1.05 model=1 kW=0.760008 kvar=0.370023806178 Phases=2

New Load.rclvl5114 conn=wye bus1=rclv5114.1.2 kV=0.240178 Vminpu=0.95 Vmaxpu=1.05 model=1 kW=1.66002 kvar=0.800219242954 Phases=2

New Load.rclvl5115 conn=wye bus1=rclv5115.1.2 kV=0.240178 Vminpu=0.95 Vmaxpu=1.05 model=1 kW=38.2504 kvar=18.5255142389 Phases=2

New Load.rclvl5116 conn=wye bus1=rclv5116.1.2 kV=0.240178 Vminpu=0.95 Vmaxpu=1.05 model=1 kW=1.66002 kvar=0.800219242954 Phases=2

New Load.rclvl5117 conn=wye bus1=rclv5117.1.2 kV=0.240178 Vminpu=0.95 Vmaxpu=1.05 model=1 kW=0.760008 kvar=0.370023806178 Phases=2

New Load.rclvl5110 conn=wye bus1=rclv5110.1.2 kV=0.240178 Vminpu=0.95 Vmaxpu=1.05 model=1 kW=1.66002 kvar=0.800219242954 Phases=2

New Load.rclvl5111 conn=wye bus1=rclv5111.1.2 kV=0.240178 Vminpu=0.95 Vmaxpu=1.05 model=1 kW=0.760008 kvar=0.370023806178 Phases=2

New Load.rclvl5112 conn=wye bus1=rclv5112.1.2 kV=0.240178 Vminpu=0.95 Vmaxpu=1.05 model=1 kW=1.66002 kvar=0.800219242954 Phases=2

New Load.rclvl5113 conn=wye bus1=rclv5113.1.2 kV=0.240178 Vminpu=0.95 Vmaxpu=1.05 model=1 kW=0.760008 kvar=0.370023806178 Phases=2

New Load.rclvl5118 conn=wye bus1=rclv5118.1.2 kV=0.240178 Vminpu=0.95 Vmaxpu=1.05 model=1 kW=2.74003 kvar=1.33015976772 Phases=2
