New Transformer.ctrafo(cramaee():s_ncctt1570->s_ncctt1570_bt) phases=1 windings=3 %loadloss=1.248151 %Noloadloss=0.68 normhkva=11.0 wdg=1 conn=wye bus=s_ncctt1570.3 Kv=7.19956 kva=10.0 EmergHKVA=15.0 %r=0.41605 wdg=2 conn=wye bus=s_ncctt1570_bt.1.0 Kv=0.120089 kva=10.0 EmergHKVA=15.0 %r=0.832101 wdg=3 conn=wye bus=s_ncctt1570_bt.0.2 Kv=0.120089 kva=10.0 EmergHKVA=15.0 %r=0.832101 XHL=1.08 XLT=1.08 XHT=0.72

New Transformer.ctrafo(cramaee():s_ncctt258->s_ncctt258_bt) phases=1 windings=3 %loadloss=0.798816 %Noloadloss=0.472 normhkva=27.5 wdg=1 conn=wye bus=s_ncctt258.1 Kv=7.19956 kva=25.0 EmergHKVA=37.5 %r=0.266272 wdg=2 conn=wye bus=s_ncctt258_bt.1.0 Kv=0.120089 kva=25.0 EmergHKVA=37.5 %r=0.532544 wdg=3 conn=wye bus=s_ncctt258_bt.0.2 Kv=0.120089 kva=25.0 EmergHKVA=37.5 %r=0.532544 XHL=2.4 XLT=2.4 XHT=1.6

New Transformer.ctrafo(cramaee():s_ncctt1087->s_ncctt1087_bt) phases=1 windings=3 %loadloss=0.49926 %Noloadloss=0.38 normhkva=82.5 wdg=1 conn=wye bus=s_ncctt1087.3 Kv=7.19956 kva=75.0 EmergHKVA=112.5 %r=0.16642 wdg=2 conn=wye bus=s_ncctt1087_bt.1.0 Kv=0.120089 kva=75.0 EmergHKVA=112.5 %r=0.33284 wdg=3 conn=wye bus=s_ncctt1087_bt.0.2 Kv=0.120089 kva=75.0 EmergHKVA=112.5 %r=0.33284 XHL=2.4 XLT=2.4 XHT=1.6

New Transformer.creguladortension(cramaee():s_ncctt208->s_nssee0_12.47) phases=3 windings=2 %loadloss=0.0 %Noloadloss=0.0 normhkva=11000.0 wdg=1 conn=wye Kv=12.47 kva=10000.0 EmergHKVA=15000.0 %R=0.0 bus=s_ncctt208->s_nssee0_1247_s wdg=2 conn=wye Kv=12.47 kva=10000.0 EmergHKVA=15000.0 %R=0.0 bus=s_ncctt208 XHL=0.04

New Transformer.ctrafo(cramaee():s_ncctt1597->s_ncctt1597_bt) phases=1 windings=3 %loadloss=1.248151 %Noloadloss=0.68 normhkva=11.0 wdg=1 conn=wye bus=s_ncctt1597.2 Kv=7.19956 kva=10.0 EmergHKVA=15.0 %r=0.41605 wdg=2 conn=wye bus=s_ncctt1597_bt.1.0 Kv=0.120089 kva=10.0 EmergHKVA=15.0 %r=0.832101 wdg=3 conn=wye bus=s_ncctt1597_bt.0.2 Kv=0.120089 kva=10.0 EmergHKVA=15.0 %r=0.832101 XHL=1.08 XLT=1.08 XHT=0.72

New Transformer.ctrafo(cramaee():s_ncctt2035->s_ncctt2035_bt) phases=1 windings=3 %loadloss=1.248151 %Noloadloss=0.68 normhkva=11.0 wdg=1 conn=wye bus=s_ncctt2035.1 Kv=7.19956 kva=10.0 EmergHKVA=15.0 %r=0.41605 wdg=2 conn=wye bus=s_ncctt2035_bt.1.0 Kv=0.120089 kva=10.0 EmergHKVA=15.0 %r=0.832101 wdg=3 conn=wye bus=s_ncctt2035_bt.0.2 Kv=0.120089 kva=10.0 EmergHKVA=15.0 %r=0.832101 XHL=1.08 XLT=1.08 XHT=0.72

New Transformer.ctrafo(cramaee():s_ncctt1977->s_ncctt1977_bt) phases=1 windings=3 %loadloss=1.248151 %Noloadloss=0.68 normhkva=11.0 wdg=1 conn=wye bus=s_ncctt1977.1 Kv=7.19956 kva=10.0 EmergHKVA=15.0 %r=0.41605 wdg=2 conn=wye bus=s_ncctt1977_bt.1.0 Kv=0.120089 kva=10.0 EmergHKVA=15.0 %r=0.832101 wdg=3 conn=wye bus=s_ncctt1977_bt.0.2 Kv=0.120089 kva=10.0 EmergHKVA=15.0 %r=0.832101 XHL=1.08 XLT=1.08 XHT=0.72

New Transformer.ctrafo(cramaee():s_ncctt2271->s_ncctt2271_bt) phases=1 windings=3 %loadloss=1.248151 %Noloadloss=0.68 normhkva=11.0 wdg=1 conn=wye bus=s_ncctt2271.3 Kv=7.19956 kva=10.0 EmergHKVA=15.0 %r=0.41605 wdg=2 conn=wye bus=s_ncctt2271_bt.1.0 Kv=0.120089 kva=10.0 EmergHKVA=15.0 %r=0.832101 wdg=3 conn=wye bus=s_ncctt2271_bt.0.2 Kv=0.120089 kva=10.0 EmergHKVA=15.0 %r=0.832101 XHL=1.08 XLT=1.08 XHT=0.72

New Transformer.ctrafo(cramaee():s_ncctt2169->s_ncctt2169_bt) phases=1 windings=3 %loadloss=1.248151 %Noloadloss=0.68 normhkva=11.0 wdg=1 conn=wye bus=s_ncctt2169.1 Kv=7.19956 kva=10.0 EmergHKVA=15.0 %r=0.41605 wdg=2 conn=wye bus=s_ncctt2169_bt.1.0 Kv=0.120089 kva=10.0 EmergHKVA=15.0 %r=0.832101 wdg=3 conn=wye bus=s_ncctt2169_bt.0.2 Kv=0.120089 kva=10.0 EmergHKVA=15.0 %r=0.832101 XHL=1.08 XLT=1.08 XHT=0.72

New Transformer.ctrafo(cramaee():s_ncctt306->s_ncctt306_bt) phases=1 windings=3 %loadloss=1.248151 %Noloadloss=0.68 normhkva=11.0 wdg=1 conn=wye bus=s_ncctt306.2 Kv=7.19956 kva=10.0 EmergHKVA=15.0 %r=0.41605 wdg=2 conn=wye bus=s_ncctt306_bt.1.0 Kv=0.120089 kva=10.0 EmergHKVA=15.0 %r=0.832101 wdg=3 conn=wye bus=s_ncctt306_bt.0.2 Kv=0.120089 kva=10.0 EmergHKVA=15.0 %r=0.832101 XHL=1.08 XLT=1.08 XHT=0.72

New Transformer.ctrafo(cramaee():s_ncctt698->s_ncctt698_bt) phases=1 windings=3 %loadloss=1.248151 %Noloadloss=0.68 normhkva=11.0 wdg=1 conn=wye bus=s_ncctt698.1 Kv=7.19956 kva=10.0 EmergHKVA=15.0 %r=0.41605 wdg=2 conn=wye bus=s_ncctt698_bt.1.0 Kv=0.120089 kva=10.0 EmergHKVA=15.0 %r=0.832101 wdg=3 conn=wye bus=s_ncctt698_bt.0.2 Kv=0.120089 kva=10.0 EmergHKVA=15.0 %r=0.832101 XHL=1.08 XLT=1.08 XHT=0.72

New Transformer.ctrafo(cramaee():s_ncctt2379->s_ncctt2379_bt) phases=1 windings=3 %loadloss=0.798816 %Noloadloss=0.472 normhkva=27.5 wdg=1 conn=wye bus=s_ncctt2379.2 Kv=7.19956 kva=25.0 EmergHKVA=37.5 %r=0.266272 wdg=2 conn=wye bus=s_ncctt2379_bt.1.0 Kv=0.120089 kva=25.0 EmergHKVA=37.5 %r=0.532544 wdg=3 conn=wye bus=s_ncctt2379_bt.0.2 Kv=0.120089 kva=25.0 EmergHKVA=37.5 %r=0.532544 XHL=2.4 XLT=2.4 XHT=1.6

New Transformer.ctrafo(cramaee():s_ncctt1693->s_ncctt1693_bt) phases=1 windings=3 %loadloss=1.248151 %Noloadloss=0.68 normhkva=11.0 wdg=1 conn=wye bus=s_ncctt1693.1 Kv=7.19956 kva=10.0 EmergHKVA=15.0 %r=0.41605 wdg=2 conn=wye bus=s_ncctt1693_bt.1.0 Kv=0.120089 kva=10.0 EmergHKVA=15.0 %r=0.832101 wdg=3 conn=wye bus=s_ncctt1693_bt.0.2 Kv=0.120089 kva=10.0 EmergHKVA=15.0 %r=0.832101 XHL=1.08 XLT=1.08 XHT=0.72

New Transformer.ctrafo(cramaee():s_ncctt1137->s_ncctt1137_bt) phases=1 windings=3 %loadloss=1.248151 %Noloadloss=0.68 normhkva=11.0 wdg=1 conn=wye bus=s_ncctt1137.1 Kv=7.19956 kva=10.0 EmergHKVA=15.0 %r=0.41605 wdg=2 conn=wye bus=s_ncctt1137_bt.1.0 Kv=0.120089 kva=10.0 EmergHKVA=15.0 %r=0.832101 wdg=3 conn=wye bus=s_ncctt1137_bt.0.2 Kv=0.120089 kva=10.0 EmergHKVA=15.0 %r=0.832101 XHL=1.08 XLT=1.08 XHT=0.72

New Transformer.ctrafo(cramaee():s_ncctt1455->s_ncctt1455_bt) phases=1 windings=3 %loadloss=1.248151 %Noloadloss=0.68 normhkva=11.0 wdg=1 conn=wye bus=s_ncctt1455.3 Kv=7.19956 kva=10.0 EmergHKVA=15.0 %r=0.41605 wdg=2 conn=wye bus=s_ncctt1455_bt.1.0 Kv=0.120089 kva=10.0 EmergHKVA=15.0 %r=0.832101 wdg=3 conn=wye bus=s_ncctt1455_bt.0.2 Kv=0.120089 kva=10.0 EmergHKVA=15.0 %r=0.832101 XHL=1.08 XLT=1.08 XHT=0.72

New Transformer.ctrafo(cramaee():s_ncctt510->s_ncctt510_bt) phases=1 windings=3 %loadloss=1.248151 %Noloadloss=0.68 normhkva=11.0 wdg=1 conn=wye bus=s_ncctt510.3 Kv=7.19956 kva=10.0 EmergHKVA=15.0 %r=0.41605 wdg=2 conn=wye bus=s_ncctt510_bt.1.0 Kv=0.120089 kva=10.0 EmergHKVA=15.0 %r=0.832101 wdg=3 conn=wye bus=s_ncctt510_bt.0.2 Kv=0.120089 kva=10.0 EmergHKVA=15.0 %r=0.832101 XHL=1.08 XLT=1.08 XHT=0.72

New Transformer.ctrafo(cramaee():s_ncctt1462->s_ncctt1462_bt) phases=1 windings=3 %loadloss=0.798816 %Noloadloss=0.472 normhkva=27.5 wdg=1 conn=wye bus=s_ncctt1462.1 Kv=7.19956 kva=25.0 EmergHKVA=37.5 %r=0.266272 wdg=2 conn=wye bus=s_ncctt1462_bt.1.0 Kv=0.120089 kva=25.0 EmergHKVA=37.5 %r=0.532544 wdg=3 conn=wye bus=s_ncctt1462_bt.0.2 Kv=0.120089 kva=25.0 EmergHKVA=37.5 %r=0.532544 XHL=2.4 XLT=2.4 XHT=1.6

New Transformer.ctrafo(cramaee():s_ncctt1035->s_ncctt1035_bt) phases=1 windings=3 %loadloss=1.248151 %Noloadloss=0.68 normhkva=11.0 wdg=1 conn=wye bus=s_ncctt1035.2 Kv=7.19956 kva=10.0 EmergHKVA=15.0 %r=0.41605 wdg=2 conn=wye bus=s_ncctt1035_bt.1.0 Kv=0.120089 kva=10.0 EmergHKVA=15.0 %r=0.832101 wdg=3 conn=wye bus=s_ncctt1035_bt.0.2 Kv=0.120089 kva=10.0 EmergHKVA=15.0 %r=0.832101 XHL=1.08 XLT=1.08 XHT=0.72

New Transformer.ctrafo(cramaee():s_ncctt950->s_ncctt950_bt) phases=1 windings=3 %loadloss=1.248151 %Noloadloss=0.68 normhkva=11.0 wdg=1 conn=wye bus=s_ncctt950.1 Kv=7.19956 kva=10.0 EmergHKVA=15.0 %r=0.41605 wdg=2 conn=wye bus=s_ncctt950_bt.1.0 Kv=0.120089 kva=10.0 EmergHKVA=15.0 %r=0.832101 wdg=3 conn=wye bus=s_ncctt950_bt.0.2 Kv=0.120089 kva=10.0 EmergHKVA=15.0 %r=0.832101 XHL=1.08 XLT=1.08 XHT=0.72

New Transformer.ctrafo(cramaee():s_ncctt2273->s_ncctt2273_bt) phases=1 windings=3 %loadloss=1.248151 %Noloadloss=0.68 normhkva=11.0 wdg=1 conn=wye bus=s_ncctt2273.1 Kv=7.19956 kva=10.0 EmergHKVA=15.0 %r=0.41605 wdg=2 conn=wye bus=s_ncctt2273_bt.1.0 Kv=0.120089 kva=10.0 EmergHKVA=15.0 %r=0.832101 wdg=3 conn=wye bus=s_ncctt2273_bt.0.2 Kv=0.120089 kva=10.0 EmergHKVA=15.0 %r=0.832101 XHL=1.08 XLT=1.08 XHT=0.72

New Transformer.ctrafo(cramaee():s_ncctt2257->s_ncctt2257_bt) phases=1 windings=3 %loadloss=0.49926 %Noloadloss=0.38 normhkva=82.5 wdg=1 conn=wye bus=s_ncctt2257.2 Kv=7.19956 kva=75.0 EmergHKVA=112.5 %r=0.16642 wdg=2 conn=wye bus=s_ncctt2257_bt.1.0 Kv=0.120089 kva=75.0 EmergHKVA=112.5 %r=0.33284 wdg=3 conn=wye bus=s_ncctt2257_bt.0.2 Kv=0.120089 kva=75.0 EmergHKVA=112.5 %r=0.33284 XHL=2.4 XLT=2.4 XHT=1.6

New Transformer.ctrafo(cramaee():s_ncctt63->s_ncctt63_bt) phases=1 windings=3 %loadloss=1.248151 %Noloadloss=0.68 normhkva=11.0 wdg=1 conn=wye bus=s_ncctt63.2 Kv=7.19956 kva=10.0 EmergHKVA=15.0 %r=0.41605 wdg=2 conn=wye bus=s_ncctt63_bt.1.0 Kv=0.120089 kva=10.0 EmergHKVA=15.0 %r=0.832101 wdg=3 conn=wye bus=s_ncctt63_bt.0.2 Kv=0.120089 kva=10.0 EmergHKVA=15.0 %r=0.832101 XHL=1.08 XLT=1.08 XHT=0.72

New Transformer.ctrafo(cramaee():s_ncctt2060->s_ncctt2060_bt) phases=1 windings=3 %loadloss=1.248151 %Noloadloss=0.68 normhkva=11.0 wdg=1 conn=wye bus=s_ncctt2060.1 Kv=7.19956 kva=10.0 EmergHKVA=15.0 %r=0.41605 wdg=2 conn=wye bus=s_ncctt2060_bt.1.0 Kv=0.120089 kva=10.0 EmergHKVA=15.0 %r=0.832101 wdg=3 conn=wye bus=s_ncctt2060_bt.0.2 Kv=0.120089 kva=10.0 EmergHKVA=15.0 %r=0.832101 XHL=1.08 XLT=1.08 XHT=0.72

New Transformer.ctrafo(cramaee():s_ncctt1607->s_ncctt1607_bt) phases=1 windings=3 %loadloss=1.248151 %Noloadloss=0.68 normhkva=11.0 wdg=1 conn=wye bus=s_ncctt1607.1 Kv=7.19956 kva=10.0 EmergHKVA=15.0 %r=0.41605 wdg=2 conn=wye bus=s_ncctt1607_bt.1.0 Kv=0.120089 kva=10.0 EmergHKVA=15.0 %r=0.832101 wdg=3 conn=wye bus=s_ncctt1607_bt.0.2 Kv=0.120089 kva=10.0 EmergHKVA=15.0 %r=0.832101 XHL=1.08 XLT=1.08 XHT=0.72

New Transformer.ctrafo(cramaee():s_ncctt1295->s_ncctt1295_bt) phases=1 windings=3 %loadloss=1.248151 %Noloadloss=0.68 normhkva=11.0 wdg=1 conn=wye bus=s_ncctt1295.2 Kv=7.19956 kva=10.0 EmergHKVA=15.0 %r=0.41605 wdg=2 conn=wye bus=s_ncctt1295_bt.1.0 Kv=0.120089 kva=10.0 EmergHKVA=15.0 %r=0.832101 wdg=3 conn=wye bus=s_ncctt1295_bt.0.2 Kv=0.120089 kva=10.0 EmergHKVA=15.0 %r=0.832101 XHL=1.08 XLT=1.08 XHT=0.72

New Transformer.ctrafo(cramaee():s_ncctt388->s_ncctt388_bt) phases=1 windings=3 %loadloss=0.798816 %Noloadloss=0.37 normhkva=55.0 wdg=1 conn=wye bus=s_ncctt388.1 Kv=7.19956 kva=50.0 EmergHKVA=75.0 %r=0.266272 wdg=2 conn=wye bus=s_ncctt388_bt.1.0 Kv=0.120089 kva=50.0 EmergHKVA=75.0 %r=0.532544 wdg=3 conn=wye bus=s_ncctt388_bt.0.2 Kv=0.120089 kva=50.0 EmergHKVA=75.0 %r=0.532544 XHL=2.4 XLT=2.4 XHT=1.6

New Transformer.ctrafo(cramaee():s_ncctt783->s_ncctt783_bt) phases=1 windings=3 %loadloss=1.248151 %Noloadloss=0.68 normhkva=11.0 wdg=1 conn=wye bus=s_ncctt783.1 Kv=7.19956 kva=10.0 EmergHKVA=15.0 %r=0.41605 wdg=2 conn=wye bus=s_ncctt783_bt.1.0 Kv=0.120089 kva=10.0 EmergHKVA=15.0 %r=0.832101 wdg=3 conn=wye bus=s_ncctt783_bt.0.2 Kv=0.120089 kva=10.0 EmergHKVA=15.0 %r=0.832101 XHL=1.08 XLT=1.08 XHT=0.72

New Transformer.ctrafo(cramaee():s_ncctt1745->s_ncctt1745_bt) phases=1 windings=3 %loadloss=1.248151 %Noloadloss=0.68 normhkva=11.0 wdg=1 conn=wye bus=s_ncctt1745.2 Kv=7.19956 kva=10.0 EmergHKVA=15.0 %r=0.41605 wdg=2 conn=wye bus=s_ncctt1745_bt.1.0 Kv=0.120089 kva=10.0 EmergHKVA=15.0 %r=0.832101 wdg=3 conn=wye bus=s_ncctt1745_bt.0.2 Kv=0.120089 kva=10.0 EmergHKVA=15.0 %r=0.832101 XHL=1.08 XLT=1.08 XHT=0.72

New Transformer.ctrafo(cramaee():s_ncctt2453->s_ncctt2453_bt) phases=1 windings=3 %loadloss=1.248151 %Noloadloss=0.68 normhkva=11.0 wdg=1 conn=wye bus=s_ncctt2453.1 Kv=7.19956 kva=10.0 EmergHKVA=15.0 %r=0.41605 wdg=2 conn=wye bus=s_ncctt2453_bt.1.0 Kv=0.120089 kva=10.0 EmergHKVA=15.0 %r=0.832101 wdg=3 conn=wye bus=s_ncctt2453_bt.0.2 Kv=0.120089 kva=10.0 EmergHKVA=15.0 %r=0.832101 XHL=1.08 XLT=1.08 XHT=0.72

New Transformer.ctrafo(cramaee():s_ncctt903->s_ncctt903_bt) phases=1 windings=3 %loadloss=1.248151 %Noloadloss=0.68 normhkva=11.0 wdg=1 conn=wye bus=s_ncctt903.2 Kv=7.19956 kva=10.0 EmergHKVA=15.0 %r=0.41605 wdg=2 conn=wye bus=s_ncctt903_bt.1.0 Kv=0.120089 kva=10.0 EmergHKVA=15.0 %r=0.832101 wdg=3 conn=wye bus=s_ncctt903_bt.0.2 Kv=0.120089 kva=10.0 EmergHKVA=15.0 %r=0.832101 XHL=1.08 XLT=1.08 XHT=0.72

New Transformer.ctrafo(cramaee():s_ncctt126->s_ncctt126_bt) phases=1 windings=3 %loadloss=1.248151 %Noloadloss=0.68 normhkva=11.0 wdg=1 conn=wye bus=s_ncctt126.1 Kv=7.19956 kva=10.0 EmergHKVA=15.0 %r=0.41605 wdg=2 conn=wye bus=s_ncctt126_bt.1.0 Kv=0.120089 kva=10.0 EmergHKVA=15.0 %r=0.832101 wdg=3 conn=wye bus=s_ncctt126_bt.0.2 Kv=0.120089 kva=10.0 EmergHKVA=15.0 %r=0.832101 XHL=1.08 XLT=1.08 XHT=0.72

New Transformer.ctrafo(cramaee():s_ncctt2428->s_ncctt2428_bt) phases=1 windings=3 %loadloss=0.798816 %Noloadloss=0.472 normhkva=27.5 wdg=1 conn=wye bus=s_ncctt2428.1 Kv=7.19956 kva=25.0 EmergHKVA=37.5 %r=0.266272 wdg=2 conn=wye bus=s_ncctt2428_bt.1.0 Kv=0.120089 kva=25.0 EmergHKVA=37.5 %r=0.532544 wdg=3 conn=wye bus=s_ncctt2428_bt.0.2 Kv=0.120089 kva=25.0 EmergHKVA=37.5 %r=0.532544 XHL=2.4 XLT=2.4 XHT=1.6

New Transformer.ctrafo(cramaee():s_ncctt1718->s_ncctt1718_bt) phases=1 windings=3 %loadloss=1.248151 %Noloadloss=0.68 normhkva=11.0 wdg=1 conn=wye bus=s_ncctt1718.3 Kv=7.19956 kva=10.0 EmergHKVA=15.0 %r=0.41605 wdg=2 conn=wye bus=s_ncctt1718_bt.1.0 Kv=0.120089 kva=10.0 EmergHKVA=15.0 %r=0.832101 wdg=3 conn=wye bus=s_ncctt1718_bt.0.2 Kv=0.120089 kva=10.0 EmergHKVA=15.0 %r=0.832101 XHL=1.08 XLT=1.08 XHT=0.72

New Transformer.ctrafo(cramaee():s_ncctt2394->s_ncctt2394_bt) phases=1 windings=3 %loadloss=0.798816 %Noloadloss=0.472 normhkva=27.5 wdg=1 conn=wye bus=s_ncctt2394.2 Kv=7.19956 kva=25.0 EmergHKVA=37.5 %r=0.266272 wdg=2 conn=wye bus=s_ncctt2394_bt.1.0 Kv=0.120089 kva=25.0 EmergHKVA=37.5 %r=0.532544 wdg=3 conn=wye bus=s_ncctt2394_bt.0.2 Kv=0.120089 kva=25.0 EmergHKVA=37.5 %r=0.532544 XHL=2.4 XLT=2.4 XHT=1.6

New Transformer.ctrafo(cramaee():s_ncctt582->s_ncctt582_bt) phases=1 windings=3 %loadloss=1.248151 %Noloadloss=0.68 normhkva=11.0 wdg=1 conn=wye bus=s_ncctt582.2 Kv=7.19956 kva=10.0 EmergHKVA=15.0 %r=0.41605 wdg=2 conn=wye bus=s_ncctt582_bt.1.0 Kv=0.120089 kva=10.0 EmergHKVA=15.0 %r=0.832101 wdg=3 conn=wye bus=s_ncctt582_bt.0.2 Kv=0.120089 kva=10.0 EmergHKVA=15.0 %r=0.832101 XHL=1.08 XLT=1.08 XHT=0.72

New Transformer.ctrafo(cramaee():s_ncctt1095->s_ncctt1095_bt) phases=1 windings=3 %loadloss=1.248151 %Noloadloss=0.68 normhkva=11.0 wdg=1 conn=wye bus=s_ncctt1095.3 Kv=7.19956 kva=10.0 EmergHKVA=15.0 %r=0.41605 wdg=2 conn=wye bus=s_ncctt1095_bt.1.0 Kv=0.120089 kva=10.0 EmergHKVA=15.0 %r=0.832101 wdg=3 conn=wye bus=s_ncctt1095_bt.0.2 Kv=0.120089 kva=10.0 EmergHKVA=15.0 %r=0.832101 XHL=1.08 XLT=1.08 XHT=0.72

New Transformer.ctrafo(cramaee():s_ncctt120->s_ncctt120_bt) phases=1 windings=3 %loadloss=1.248151 %Noloadloss=0.68 normhkva=11.0 wdg=1 conn=wye bus=s_ncctt120.1 Kv=7.19956 kva=10.0 EmergHKVA=15.0 %r=0.41605 wdg=2 conn=wye bus=s_ncctt120_bt.1.0 Kv=0.120089 kva=10.0 EmergHKVA=15.0 %r=0.832101 wdg=3 conn=wye bus=s_ncctt120_bt.0.2 Kv=0.120089 kva=10.0 EmergHKVA=15.0 %r=0.832101 XHL=1.08 XLT=1.08 XHT=0.72

New Transformer.ctrafo(cramaee():s_ncctt2153->s_ncctt2153_bt) phases=1 windings=3 %loadloss=1.248151 %Noloadloss=0.68 normhkva=11.0 wdg=1 conn=wye bus=s_ncctt2153.1 Kv=7.19956 kva=10.0 EmergHKVA=15.0 %r=0.41605 wdg=2 conn=wye bus=s_ncctt2153_bt.1.0 Kv=0.120089 kva=10.0 EmergHKVA=15.0 %r=0.832101 wdg=3 conn=wye bus=s_ncctt2153_bt.0.2 Kv=0.120089 kva=10.0 EmergHKVA=15.0 %r=0.832101 XHL=1.08 XLT=1.08 XHT=0.72

New Transformer.ctrafo(cramaee():s_ncctt2682->s_ncctt2682_bt) phases=1 windings=3 %loadloss=1.248151 %Noloadloss=0.68 normhkva=11.0 wdg=1 conn=wye bus=s_ncctt2682.2 Kv=7.19956 kva=10.0 EmergHKVA=15.0 %r=0.41605 wdg=2 conn=wye bus=s_ncctt2682_bt.1.0 Kv=0.120089 kva=10.0 EmergHKVA=15.0 %r=0.832101 wdg=3 conn=wye bus=s_ncctt2682_bt.0.2 Kv=0.120089 kva=10.0 EmergHKVA=15.0 %r=0.832101 XHL=1.08 XLT=1.08 XHT=0.72

New Transformer.ctrafo(cramaee():s_ncctt1302->s_ncctt1302_bt) phases=1 windings=3 %loadloss=1.248151 %Noloadloss=0.68 normhkva=11.0 wdg=1 conn=wye bus=s_ncctt1302.3 Kv=7.19956 kva=10.0 EmergHKVA=15.0 %r=0.41605 wdg=2 conn=wye bus=s_ncctt1302_bt.1.0 Kv=0.120089 kva=10.0 EmergHKVA=15.0 %r=0.832101 wdg=3 conn=wye bus=s_ncctt1302_bt.0.2 Kv=0.120089 kva=10.0 EmergHKVA=15.0 %r=0.832101 XHL=1.08 XLT=1.08 XHT=0.72

New Transformer.ctrafo(cramaee():s_ncctt1573->s_ncctt1573_bt) phases=1 windings=3 %loadloss=1.248151 %Noloadloss=0.68 normhkva=11.0 wdg=1 conn=wye bus=s_ncctt1573.3 Kv=7.19956 kva=10.0 EmergHKVA=15.0 %r=0.41605 wdg=2 conn=wye bus=s_ncctt1573_bt.1.0 Kv=0.120089 kva=10.0 EmergHKVA=15.0 %r=0.832101 wdg=3 conn=wye bus=s_ncctt1573_bt.0.2 Kv=0.120089 kva=10.0 EmergHKVA=15.0 %r=0.832101 XHL=1.08 XLT=1.08 XHT=0.72

New Transformer.ctrafo(cramaee():s_ncctt856->s_ncctt856_bt) phases=1 windings=3 %loadloss=0.49926 %Noloadloss=0.38 normhkva=82.5 wdg=1 conn=wye bus=s_ncctt856.2 Kv=7.19956 kva=75.0 EmergHKVA=112.5 %r=0.16642 wdg=2 conn=wye bus=s_ncctt856_bt.1.0 Kv=0.120089 kva=75.0 EmergHKVA=112.5 %r=0.33284 wdg=3 conn=wye bus=s_ncctt856_bt.0.2 Kv=0.120089 kva=75.0 EmergHKVA=112.5 %r=0.33284 XHL=2.4 XLT=2.4 XHT=1.6

New Transformer.ctrafo(cramaee():s_ncctt1494->s_ncctt1494_bt) phases=1 windings=3 %loadloss=1.248151 %Noloadloss=0.68 normhkva=11.0 wdg=1 conn=wye bus=s_ncctt1494.3 Kv=7.19956 kva=10.0 EmergHKVA=15.0 %r=0.41605 wdg=2 conn=wye bus=s_ncctt1494_bt.1.0 Kv=0.120089 kva=10.0 EmergHKVA=15.0 %r=0.832101 wdg=3 conn=wye bus=s_ncctt1494_bt.0.2 Kv=0.120089 kva=10.0 EmergHKVA=15.0 %r=0.832101 XHL=1.08 XLT=1.08 XHT=0.72

New Transformer.ctrafo(cramaee():s_ncctt380->s_ncctt380_bt) phases=1 windings=3 %loadloss=0.49926 %Noloadloss=0.38 normhkva=82.5 wdg=1 conn=wye bus=s_ncctt380.3 Kv=7.19956 kva=75.0 EmergHKVA=112.5 %r=0.16642 wdg=2 conn=wye bus=s_ncctt380_bt.1.0 Kv=0.120089 kva=75.0 EmergHKVA=112.5 %r=0.33284 wdg=3 conn=wye bus=s_ncctt380_bt.0.2 Kv=0.120089 kva=75.0 EmergHKVA=112.5 %r=0.33284 XHL=2.4 XLT=2.4 XHT=1.6

New Transformer.ctrafo(cramaee():s_ncctt2233->s_ncctt2233_bt) phases=1 windings=3 %loadloss=0.798816 %Noloadloss=0.472 normhkva=27.5 wdg=1 conn=wye bus=s_ncctt2233.1 Kv=7.19956 kva=25.0 EmergHKVA=37.5 %r=0.266272 wdg=2 conn=wye bus=s_ncctt2233_bt.1.0 Kv=0.120089 kva=25.0 EmergHKVA=37.5 %r=0.532544 wdg=3 conn=wye bus=s_ncctt2233_bt.0.2 Kv=0.120089 kva=25.0 EmergHKVA=37.5 %r=0.532544 XHL=2.4 XLT=2.4 XHT=1.6

New Transformer.ctrafo(cramaee():s_ncctt1417->s_ncctt1417_bt) phases=1 windings=3 %loadloss=1.248151 %Noloadloss=0.68 normhkva=11.0 wdg=1 conn=wye bus=s_ncctt1417.3 Kv=7.19956 kva=10.0 EmergHKVA=15.0 %r=0.41605 wdg=2 conn=wye bus=s_ncctt1417_bt.1.0 Kv=0.120089 kva=10.0 EmergHKVA=15.0 %r=0.832101 wdg=3 conn=wye bus=s_ncctt1417_bt.0.2 Kv=0.120089 kva=10.0 EmergHKVA=15.0 %r=0.832101 XHL=1.08 XLT=1.08 XHT=0.72

New Transformer.ctrafo(cramaee():s_ncctt2416->s_ncctt2416_bt) phases=1 windings=3 %loadloss=0.49926 %Noloadloss=0.38 normhkva=82.5 wdg=1 conn=wye bus=s_ncctt2416.3 Kv=7.19956 kva=75.0 EmergHKVA=112.5 %r=0.16642 wdg=2 conn=wye bus=s_ncctt2416_bt.1.0 Kv=0.120089 kva=75.0 EmergHKVA=112.5 %r=0.33284 wdg=3 conn=wye bus=s_ncctt2416_bt.0.2 Kv=0.120089 kva=75.0 EmergHKVA=112.5 %r=0.33284 XHL=2.4 XLT=2.4 XHT=1.6

New Transformer.ctrafo(cramaee():s_ncctt1159->s_ncctt1159_bt) phases=1 windings=3 %loadloss=1.248151 %Noloadloss=0.68 normhkva=11.0 wdg=1 conn=wye bus=s_ncctt1159.3 Kv=7.19956 kva=10.0 EmergHKVA=15.0 %r=0.41605 wdg=2 conn=wye bus=s_ncctt1159_bt.1.0 Kv=0.120089 kva=10.0 EmergHKVA=15.0 %r=0.832101 wdg=3 conn=wye bus=s_ncctt1159_bt.0.2 Kv=0.120089 kva=10.0 EmergHKVA=15.0 %r=0.832101 XHL=1.08 XLT=1.08 XHT=0.72

New Transformer.ctrafo(cramaee():s_ncctt1089->s_ncctt1089_bt) phases=1 windings=3 %loadloss=1.248151 %Noloadloss=0.68 normhkva=11.0 wdg=1 conn=wye bus=s_ncctt1089.3 Kv=7.19956 kva=10.0 EmergHKVA=15.0 %r=0.41605 wdg=2 conn=wye bus=s_ncctt1089_bt.1.0 Kv=0.120089 kva=10.0 EmergHKVA=15.0 %r=0.832101 wdg=3 conn=wye bus=s_ncctt1089_bt.0.2 Kv=0.120089 kva=10.0 EmergHKVA=15.0 %r=0.832101 XHL=1.08 XLT=1.08 XHT=0.72

New Transformer.ctrafo(cramaee():s_ncctt13->s_ncctt13_bt) phases=1 windings=3 %loadloss=0.798816 %Noloadloss=0.472 normhkva=27.5 wdg=1 conn=wye bus=s_ncctt13.2 Kv=7.19956 kva=25.0 EmergHKVA=37.5 %r=0.266272 wdg=2 conn=wye bus=s_ncctt13_bt.1.0 Kv=0.120089 kva=25.0 EmergHKVA=37.5 %r=0.532544 wdg=3 conn=wye bus=s_ncctt13_bt.0.2 Kv=0.120089 kva=25.0 EmergHKVA=37.5 %r=0.532544 XHL=2.4 XLT=2.4 XHT=1.6

New Transformer.ctrafo(cramaee():s_ncctt2643->s_ncctt2643_bt) phases=1 windings=3 %loadloss=1.248151 %Noloadloss=0.68 normhkva=11.0 wdg=1 conn=wye bus=s_ncctt2643.3 Kv=7.19956 kva=10.0 EmergHKVA=15.0 %r=0.41605 wdg=2 conn=wye bus=s_ncctt2643_bt.1.0 Kv=0.120089 kva=10.0 EmergHKVA=15.0 %r=0.832101 wdg=3 conn=wye bus=s_ncctt2643_bt.0.2 Kv=0.120089 kva=10.0 EmergHKVA=15.0 %r=0.832101 XHL=1.08 XLT=1.08 XHT=0.72

New Transformer.ctrafo(cramaee():s_ncctt947->s_ncctt947_bt) phases=1 windings=3 %loadloss=1.248151 %Noloadloss=0.68 normhkva=11.0 wdg=1 conn=wye bus=s_ncctt947.2 Kv=7.19956 kva=10.0 EmergHKVA=15.0 %r=0.41605 wdg=2 conn=wye bus=s_ncctt947_bt.1.0 Kv=0.120089 kva=10.0 EmergHKVA=15.0 %r=0.832101 wdg=3 conn=wye bus=s_ncctt947_bt.0.2 Kv=0.120089 kva=10.0 EmergHKVA=15.0 %r=0.832101 XHL=1.08 XLT=1.08 XHT=0.72

New Transformer.ctrafo(cramaee():s_ncctt1668->s_ncctt1668_bt) phases=1 windings=3 %loadloss=1.248151 %Noloadloss=0.68 normhkva=11.0 wdg=1 conn=wye bus=s_ncctt1668.1 Kv=7.19956 kva=10.0 EmergHKVA=15.0 %r=0.41605 wdg=2 conn=wye bus=s_ncctt1668_bt.1.0 Kv=0.120089 kva=10.0 EmergHKVA=15.0 %r=0.832101 wdg=3 conn=wye bus=s_ncctt1668_bt.0.2 Kv=0.120089 kva=10.0 EmergHKVA=15.0 %r=0.832101 XHL=1.08 XLT=1.08 XHT=0.72

New Transformer.creguladortension(cramaee():s_ncctt306->s_ncctt307) phases=3 windings=2 %loadloss=0.0 %Noloadloss=0.0 normhkva=11000.0 wdg=1 conn=wye Kv=12.47 kva=10000.0 EmergHKVA=15000.0 %R=0.0 bus=s_ncctt306->s_ncctt307_s wdg=2 conn=wye Kv=12.47 kva=10000.0 EmergHKVA=15000.0 %R=0.0 bus=s_ncctt307 XHL=0.04

New Transformer.ctrafo(cramaee():s_ncctt1420->s_ncctt1420_bt) phases=1 windings=3 %loadloss=1.248151 %Noloadloss=0.68 normhkva=11.0 wdg=1 conn=wye bus=s_ncctt1420.2 Kv=7.19956 kva=10.0 EmergHKVA=15.0 %r=0.41605 wdg=2 conn=wye bus=s_ncctt1420_bt.1.0 Kv=0.120089 kva=10.0 EmergHKVA=15.0 %r=0.832101 wdg=3 conn=wye bus=s_ncctt1420_bt.0.2 Kv=0.120089 kva=10.0 EmergHKVA=15.0 %r=0.832101 XHL=1.08 XLT=1.08 XHT=0.72

New Transformer.ctrafo(cramaee():s_ncctt1427->s_ncctt1427_bt) phases=1 windings=3 %loadloss=0.49926 %Noloadloss=0.38 normhkva=82.5 wdg=1 conn=wye bus=s_ncctt1427.3 Kv=7.19956 kva=75.0 EmergHKVA=112.5 %r=0.16642 wdg=2 conn=wye bus=s_ncctt1427_bt.1.0 Kv=0.120089 kva=75.0 EmergHKVA=112.5 %r=0.33284 wdg=3 conn=wye bus=s_ncctt1427_bt.0.2 Kv=0.120089 kva=75.0 EmergHKVA=112.5 %r=0.33284 XHL=2.4 XLT=2.4 XHT=1.6

New Transformer.ctrafo(cramaee():s_ncctt1048->s_ncctt1048_bt) phases=1 windings=3 %loadloss=1.248151 %Noloadloss=0.68 normhkva=11.0 wdg=1 conn=wye bus=s_ncctt1048.1 Kv=7.19956 kva=10.0 EmergHKVA=15.0 %r=0.41605 wdg=2 conn=wye bus=s_ncctt1048_bt.1.0 Kv=0.120089 kva=10.0 EmergHKVA=15.0 %r=0.832101 wdg=3 conn=wye bus=s_ncctt1048_bt.0.2 Kv=0.120089 kva=10.0 EmergHKVA=15.0 %r=0.832101 XHL=1.08 XLT=1.08 XHT=0.72

New Transformer.ctrafo(cramaee():s_ncctt713->s_ncctt713_bt) phases=1 windings=3 %loadloss=1.248151 %Noloadloss=0.68 normhkva=11.0 wdg=1 conn=wye bus=s_ncctt713.3 Kv=7.19956 kva=10.0 EmergHKVA=15.0 %r=0.41605 wdg=2 conn=wye bus=s_ncctt713_bt.1.0 Kv=0.120089 kva=10.0 EmergHKVA=15.0 %r=0.832101 wdg=3 conn=wye bus=s_ncctt713_bt.0.2 Kv=0.120089 kva=10.0 EmergHKVA=15.0 %r=0.832101 XHL=1.08 XLT=1.08 XHT=0.72

New Transformer.ctrafo(cramaee():s_ncctt2429->s_ncctt2429_bt) phases=1 windings=3 %loadloss=0.49926 %Noloadloss=0.38 normhkva=82.5 wdg=1 conn=wye bus=s_ncctt2429.1 Kv=7.19956 kva=75.0 EmergHKVA=112.5 %r=0.16642 wdg=2 conn=wye bus=s_ncctt2429_bt.1.0 Kv=0.120089 kva=75.0 EmergHKVA=112.5 %r=0.33284 wdg=3 conn=wye bus=s_ncctt2429_bt.0.2 Kv=0.120089 kva=75.0 EmergHKVA=112.5 %r=0.33284 XHL=2.4 XLT=2.4 XHT=1.6

New Transformer.ctrafo(cramaee():s_ncctt313->s_ncctt313_bt) phases=1 windings=3 %loadloss=1.248151 %Noloadloss=0.68 normhkva=11.0 wdg=1 conn=wye bus=s_ncctt313.2 Kv=7.19956 kva=10.0 EmergHKVA=15.0 %r=0.41605 wdg=2 conn=wye bus=s_ncctt313_bt.1.0 Kv=0.120089 kva=10.0 EmergHKVA=15.0 %r=0.832101 wdg=3 conn=wye bus=s_ncctt313_bt.0.2 Kv=0.120089 kva=10.0 EmergHKVA=15.0 %r=0.832101 XHL=1.08 XLT=1.08 XHT=0.72

New Transformer.ctrafo(cramaee():s_ncctt1181->s_ncctt1181_bt) phases=1 windings=3 %loadloss=1.248151 %Noloadloss=0.68 normhkva=11.0 wdg=1 conn=wye bus=s_ncctt1181.2 Kv=7.19956 kva=10.0 EmergHKVA=15.0 %r=0.41605 wdg=2 conn=wye bus=s_ncctt1181_bt.1.0 Kv=0.120089 kva=10.0 EmergHKVA=15.0 %r=0.832101 wdg=3 conn=wye bus=s_ncctt1181_bt.0.2 Kv=0.120089 kva=10.0 EmergHKVA=15.0 %r=0.832101 XHL=1.08 XLT=1.08 XHT=0.72

New Transformer.ctrafo(cramaee():s_ncctt228->s_ncctt228_bt) phases=1 windings=3 %loadloss=1.248151 %Noloadloss=0.68 normhkva=11.0 wdg=1 conn=wye bus=s_ncctt228.2 Kv=7.19956 kva=10.0 EmergHKVA=15.0 %r=0.41605 wdg=2 conn=wye bus=s_ncctt228_bt.1.0 Kv=0.120089 kva=10.0 EmergHKVA=15.0 %r=0.832101 wdg=3 conn=wye bus=s_ncctt228_bt.0.2 Kv=0.120089 kva=10.0 EmergHKVA=15.0 %r=0.832101 XHL=1.08 XLT=1.08 XHT=0.72

New Transformer.ctrafo(cramaee():s_ncctt1479->s_ncctt1479_bt) phases=1 windings=3 %loadloss=1.248151 %Noloadloss=0.68 normhkva=11.0 wdg=1 conn=wye bus=s_ncctt1479.2 Kv=7.19956 kva=10.0 EmergHKVA=15.0 %r=0.41605 wdg=2 conn=wye bus=s_ncctt1479_bt.1.0 Kv=0.120089 kva=10.0 EmergHKVA=15.0 %r=0.832101 wdg=3 conn=wye bus=s_ncctt1479_bt.0.2 Kv=0.120089 kva=10.0 EmergHKVA=15.0 %r=0.832101 XHL=1.08 XLT=1.08 XHT=0.72

New Transformer.ctrafo(cramaee():s_ncctt496->s_ncctt496_bt) phases=1 windings=3 %loadloss=0.49926 %Noloadloss=0.38 normhkva=82.5 wdg=1 conn=wye bus=s_ncctt496.2 Kv=7.19956 kva=75.0 EmergHKVA=112.5 %r=0.16642 wdg=2 conn=wye bus=s_ncctt496_bt.1.0 Kv=0.120089 kva=75.0 EmergHKVA=112.5 %r=0.33284 wdg=3 conn=wye bus=s_ncctt496_bt.0.2 Kv=0.120089 kva=75.0 EmergHKVA=112.5 %r=0.33284 XHL=2.4 XLT=2.4 XHT=1.6

New Transformer.ctrafo(cramaee():s_ncctt1306->s_ncctt1306_bt) phases=1 windings=3 %loadloss=1.248151 %Noloadloss=0.68 normhkva=11.0 wdg=1 conn=wye bus=s_ncctt1306.2 Kv=7.19956 kva=10.0 EmergHKVA=15.0 %r=0.41605 wdg=2 conn=wye bus=s_ncctt1306_bt.1.0 Kv=0.120089 kva=10.0 EmergHKVA=15.0 %r=0.832101 wdg=3 conn=wye bus=s_ncctt1306_bt.0.2 Kv=0.120089 kva=10.0 EmergHKVA=15.0 %r=0.832101 XHL=1.08 XLT=1.08 XHT=0.72

New Transformer.ctrafo(cramaee():s_ncctt1082->s_ncctt1082_bt) phases=1 windings=3 %loadloss=1.248151 %Noloadloss=0.68 normhkva=11.0 wdg=1 conn=wye bus=s_ncctt1082.3 Kv=7.19956 kva=10.0 EmergHKVA=15.0 %r=0.41605 wdg=2 conn=wye bus=s_ncctt1082_bt.1.0 Kv=0.120089 kva=10.0 EmergHKVA=15.0 %r=0.832101 wdg=3 conn=wye bus=s_ncctt1082_bt.0.2 Kv=0.120089 kva=10.0 EmergHKVA=15.0 %r=0.832101 XHL=1.08 XLT=1.08 XHT=0.72

New Transformer.ctrafo(cramaee():s_ncctt2538->s_ncctt2538_bt) phases=1 windings=3 %loadloss=1.248151 %Noloadloss=0.68 normhkva=11.0 wdg=1 conn=wye bus=s_ncctt2538.2 Kv=7.19956 kva=10.0 EmergHKVA=15.0 %r=0.41605 wdg=2 conn=wye bus=s_ncctt2538_bt.1.0 Kv=0.120089 kva=10.0 EmergHKVA=15.0 %r=0.832101 wdg=3 conn=wye bus=s_ncctt2538_bt.0.2 Kv=0.120089 kva=10.0 EmergHKVA=15.0 %r=0.832101 XHL=1.08 XLT=1.08 XHT=0.72

New Transformer.ctrafo(cramaee():s_ncctt600->s_ncctt600_bt) phases=1 windings=3 %loadloss=1.248151 %Noloadloss=0.68 normhkva=11.0 wdg=1 conn=wye bus=s_ncctt600.3 Kv=7.19956 kva=10.0 EmergHKVA=15.0 %r=0.41605 wdg=2 conn=wye bus=s_ncctt600_bt.1.0 Kv=0.120089 kva=10.0 EmergHKVA=15.0 %r=0.832101 wdg=3 conn=wye bus=s_ncctt600_bt.0.2 Kv=0.120089 kva=10.0 EmergHKVA=15.0 %r=0.832101 XHL=1.08 XLT=1.08 XHT=0.72

New Transformer.ctrafo(cramaee():s_ncctt2285->s_ncctt2285_bt) phases=1 windings=3 %loadloss=1.248151 %Noloadloss=0.68 normhkva=11.0 wdg=1 conn=wye bus=s_ncctt2285.3 Kv=7.19956 kva=10.0 EmergHKVA=15.0 %r=0.41605 wdg=2 conn=wye bus=s_ncctt2285_bt.1.0 Kv=0.120089 kva=10.0 EmergHKVA=15.0 %r=0.832101 wdg=3 conn=wye bus=s_ncctt2285_bt.0.2 Kv=0.120089 kva=10.0 EmergHKVA=15.0 %r=0.832101 XHL=1.08 XLT=1.08 XHT=0.72

New Transformer.ctrafo(cramaee():s_ncctt2110->s_ncctt2110_bt) phases=1 windings=3 %loadloss=1.248151 %Noloadloss=0.68 normhkva=11.0 wdg=1 conn=wye bus=s_ncctt2110.3 Kv=7.19956 kva=10.0 EmergHKVA=15.0 %r=0.41605 wdg=2 conn=wye bus=s_ncctt2110_bt.1.0 Kv=0.120089 kva=10.0 EmergHKVA=15.0 %r=0.832101 wdg=3 conn=wye bus=s_ncctt2110_bt.0.2 Kv=0.120089 kva=10.0 EmergHKVA=15.0 %r=0.832101 XHL=1.08 XLT=1.08 XHT=0.72

New Transformer.ctrafo(cramaee():s_ncctt2631->s_ncctt2631_bt) phases=1 windings=3 %loadloss=1.248151 %Noloadloss=0.68 normhkva=11.0 wdg=1 conn=wye bus=s_ncctt2631.2 Kv=7.19956 kva=10.0 EmergHKVA=15.0 %r=0.41605 wdg=2 conn=wye bus=s_ncctt2631_bt.1.0 Kv=0.120089 kva=10.0 EmergHKVA=15.0 %r=0.832101 wdg=3 conn=wye bus=s_ncctt2631_bt.0.2 Kv=0.120089 kva=10.0 EmergHKVA=15.0 %r=0.832101 XHL=1.08 XLT=1.08 XHT=0.72

New Transformer.ctrafo(cramaee():s_ncctt764->s_ncctt764_bt) phases=1 windings=3 %loadloss=1.248151 %Noloadloss=0.68 normhkva=11.0 wdg=1 conn=wye bus=s_ncctt764.1 Kv=7.19956 kva=10.0 EmergHKVA=15.0 %r=0.41605 wdg=2 conn=wye bus=s_ncctt764_bt.1.0 Kv=0.120089 kva=10.0 EmergHKVA=15.0 %r=0.832101 wdg=3 conn=wye bus=s_ncctt764_bt.0.2 Kv=0.120089 kva=10.0 EmergHKVA=15.0 %r=0.832101 XHL=1.08 XLT=1.08 XHT=0.72

New Transformer.ctrafo(cramaee():s_ncctt302->s_ncctt302_bt) phases=1 windings=3 %loadloss=1.248151 %Noloadloss=0.68 normhkva=11.0 wdg=1 conn=wye bus=s_ncctt302.2 Kv=7.19956 kva=10.0 EmergHKVA=15.0 %r=0.41605 wdg=2 conn=wye bus=s_ncctt302_bt.1.0 Kv=0.120089 kva=10.0 EmergHKVA=15.0 %r=0.832101 wdg=3 conn=wye bus=s_ncctt302_bt.0.2 Kv=0.120089 kva=10.0 EmergHKVA=15.0 %r=0.832101 XHL=1.08 XLT=1.08 XHT=0.72
