New Line.clineacable(cramaee():s_dummy1438->uclv33941) Units=mi Length=0.0110044182729 bus1=s_dummy1438.1.2 bus2=uclv33941.1.2 switch=n phases=2 Linecode=2P_Code0

New Line.clineacable(cramaee():s_dummy1042->uclv60697) Units=mi Length=0.0083885085 bus1=s_dummy1042.1.2 bus2=uclv60697.1.2 switch=n phases=2 Linecode=2P_Code0

New Line.clineacable(cramaee():s_ncctt67_bt->uclv58709) Units=mi Length=0.0247254084207 bus1=s_ncctt67_bt.1.2 bus2=uclv58709.1.2 switch=n phases=2 Linecode=2P_Code0

New Line.clineacable(cramaee():s_ncctt531->s_ncctt676) Units=mi Length=0.0172943083575 bus1=s_ncctt676.1.2.3 bus2=s_ncctt531.1.2.3 switch=n phases=3 Linecode=3P_Code1

New Line.clineacable(cramaee():s_ncctt1274->s_ncctt371) Units=mi Length=0.0292942872466 bus1=s_ncctt1274.1.2.3 bus2=s_ncctt371.1.2.3 switch=n phases=3 Linecode=3P_Code1

New Line.clineacable(cramaee():s_ncctt1031_bt->uclv12552) Units=mi Length=0.000621371 bus1=s_ncctt1031_bt.1.2.3 bus2=uclv12552.1.2.3 switch=n phases=3 Linecode=3P_Code2

New Line.clineacable(cramaee():s_dummy113->uclv7809) Units=mi Length=0.00411279872561 bus1=s_dummy113.1.2 bus2=uclv7809.1.2 switch=n phases=2 Linecode=2P_Code0

New Line.clineacable(cramaee():s_dummy2500->s_ncctt1420_bt) Units=mi Length=0.000621371 bus1=s_ncctt1420_bt.1.2 bus2=s_dummy2500.1.2 switch=n phases=2 Linecode=2P_Code3

New Line.clineacable(cramaee():s_ncctt802_bt->uclv26885) Units=mi Length=0.000621371 bus1=s_ncctt802_bt.1.2 bus2=uclv26885.1.2 switch=n phases=2 Linecode=2P_Code0

New Line.switch(cramaee():s_ncctt103->s_ncctt243)_s_737 Units=mi Length=0.000621371 bus1=s_ncctt243.1 bus2=s_ncctt103->s_ncctt243_s_s.1 switch=y phases=3 Linecode=1P_Code4

New Line.fuse(cramaee():s_ncctt10->s_ncctt576)_s_1725 Units=mi Length=0.000621371 bus1=s_ncctt576.2 bus2=s_ncctt10->s_ncctt576_s.2 switch=y phases=3 Linecode=1P_Code4

New Line.switch(cramaee():s_ncctt104->s_ncctt266)_s_1305 Units=mi Length=0.000621371 bus1=s_ncctt104.1.2.3 bus2=s_ncctt104->s_ncctt266_s.1.2.3 switch=y phases=3 Linecode=3P_Code5

New Line.clineacable(cramaee():s_ncctt614->s_ncctt783) Units=mi Length=0.000621371 bus1=s_ncctt614.1.2.3 bus2=s_ncctt783.1.2.3 switch=n phases=3 Linecode=3P_Code1

New Line.switch(cramaee():s_ncctt104->s_ncctt266)_s_1306 Units=mi Length=0.000621371 bus1=s_ncctt104->s_ncctt266_s_s.1.2.3 bus2=s_ncctt266.1.2.3 switch=y phases=3 Linecode=3P_Code5

New Line.clineacable(cramaee():s_dummy2593->uclv10021) Units=mi Length=0.0518479418852 bus1=s_dummy2593.1.2 bus2=uclv10021.1.2 switch=n phases=2 Linecode=2P_Code0

New Line.clineacable(cramaee():s_ncctt1079->s_ncctt1201) Units=mi Length=0.0353415319557 bus1=s_ncctt1079.1.2.3 bus2=s_ncctt1201.1.2.3 switch=n phases=3 Linecode=3P_Code1

New Line.clineacable(cramaee():s_dummy759->s_ncctt308_bt) Units=mi Length=0.000621371 bus1=s_ncctt308_bt.1.2 bus2=s_dummy759.1.2 switch=n phases=2 Linecode=2P_Code3

New Line.clineacable(cramaee():s_ncctt1394->s_ncctt817) Units=mi Length=0.113516403877 bus1=s_ncctt1394->s_ncctt817_s_s.1 bus2=s_ncctt1394->s_ncctt817_s.1 switch=n phases=1 Linecode=1P_Code6

New Line.clineacable(cramaee():s_ncctt45_bt->uclv3658) Units=mi Length=0.0438732043341 bus1=s_ncctt45_bt.1.2.3 bus2=uclv3658.1.2.3 switch=n phases=3 Linecode=3P_Code2

New Line.clineacable(cramaee():s_ncctt1425_bt->uclv52160) Units=mi Length=0.0237322090143 bus1=s_ncctt1425_bt.1.2.3 bus2=uclv52160.1.2.3 switch=n phases=3 Linecode=3P_Code2

New Line.clineacable(cramaee():s_dummy167->uclv7769) Units=mi Length=0.0071013384735 bus1=s_dummy167.1.2 bus2=uclv7769.1.2 switch=n phases=2 Linecode=2P_Code0

New Line.clineacable(cramaee():s_ncctt407_bt->uclv45894) Units=mi Length=0.0205365600984 bus1=s_ncctt407_bt.1.2 bus2=uclv45894.1.2 switch=n phases=2 Linecode=2P_Code7

New Line.clineacable(cramaee():s_dummy1959->s_ncctt906_bt) Units=mi Length=0.0187917503304 bus1=s_ncctt906_bt.1.2 bus2=s_dummy1959.1.2 switch=n phases=2 Linecode=2P_Code7

New Line.switch(cramaee():s_ncctt1144->ucmv38)_s_1148 Units=mi Length=0.000621371 bus1=ucmv38.3 bus2=s_ncctt1144->ucmv38_s_s.3 switch=y phases=3 Linecode=1P_Code4

New Line.clineacable(cramaee():s_ncctt464->s_ncctt878) Units=mi Length=0.063153662956 bus1=s_ncctt464.1.2.3 bus2=s_ncctt878.1.2.3 switch=n phases=3 Linecode=3P_Code1

New Line.clineacable(cramaee():s_dummy878->s_ncctt478_bt) Units=mi Length=0.000621371 bus1=s_ncctt478_bt.1.2 bus2=s_dummy878.1.2 switch=n phases=2 Linecode=2P_Code0

New Line.clineacable(cramaee():s_dummy43->uclv6874) Units=mi Length=0.034930370765 bus1=s_dummy43.1.2 bus2=uclv6874.1.2 switch=n phases=2 Linecode=2P_Code0

New Line.clineacable(cramaee():s_dummy887->s_ncctt477_bt) Units=mi Length=0.000621371 bus1=s_ncctt477_bt.1.2 bus2=s_dummy887.1.2 switch=n phases=2 Linecode=2P_Code3

New Line.clineacable(cramaee():s_ncctt377_bt->uclv37520) Units=mi Length=0.0213803819164 bus1=s_ncctt377_bt.1.2 bus2=uclv37520.1.2 switch=n phases=2 Linecode=2P_Code0

New Line.clineacable(cramaee():s_ncctt4_bt->uclv3679) Units=mi Length=0.0151615766742 bus1=s_ncctt4_bt.1.2 bus2=uclv3679.1.2 switch=n phases=2 Linecode=2P_Code0

New Line.clineacable(cramaee():s_ncctt933->s_ncctt971) Units=mi Length=0.0214193418781 bus1=s_ncctt971.1.2.3 bus2=s_ncctt933.1.2.3 switch=n phases=3 Linecode=3P_Code1

New Line.clineacable(cramaee():s_dummy590->uclv52280) Units=mi Length=0.0105934434935 bus1=s_dummy590.1.2 bus2=uclv52280.1.2 switch=n phases=2 Linecode=2P_Code0

New Line.clineacable(cramaee():s_ncctt1552_bt->uclv10072) Units=mi Length=0.00520803967763 bus1=s_ncctt1552_bt.1.2 bus2=uclv10072.1.2 switch=n phases=2 Linecode=2P_Code7

New Line.clineacable(cramaee():s_ncctt108_bt->uclv60326) Units=mi Length=0.00596807582999 bus1=s_ncctt108_bt.1.2.3 bus2=uclv60326.1.2.3 switch=n phases=3 Linecode=3P_Code2

New Line.switch(cramaee():s_ncctt103->s_ncctt243)_s_738 Units=mi Length=0.000621371 bus1=s_ncctt103->s_ncctt243_s.1 bus2=s_ncctt103.1 switch=y phases=3 Linecode=1P_Code4

New Line.clineacable(cramaee():s_ncctt326->s_ncctt512) Units=mi Length=0.085542902828 bus1=s_ncctt326.1.2.3 bus2=s_ncctt512.1.2.3 switch=n phases=3 Linecode=3P_Code1

New Line.clineacable(cramaee():s_dummy421->s_dummy427) Units=mi Length=0.0105634934113 bus1=s_dummy421.1.2 bus2=s_dummy427.1.2 switch=n phases=2 Linecode=2P_Code0

New Line.clineacable(cramaee():s_dummy2174->s_dummy2176) Units=mi Length=0.0118683725113 bus1=s_dummy2176.1.2 bus2=s_dummy2174.1.2 switch=n phases=2 Linecode=2P_Code7

New Line.clineacable(cramaee():s_ncctt7_bt->uclv3653) Units=mi Length=0.0404646737136 bus1=s_ncctt7_bt.1.2 bus2=uclv3653.1.2 switch=n phases=2 Linecode=2P_Code0

New Line.clineacable(cramaee():s_ncctt652_bt->uclv29108) Units=mi Length=0.0045631622127 bus1=s_ncctt652_bt.1.2 bus2=uclv29108.1.2 switch=n phases=2 Linecode=2P_Code0

New Line.clineacable(cramaee():s_dummy2433->s_ncctt1329_bt) Units=mi Length=0.000621371 bus1=s_ncctt1329_bt.1.2 bus2=s_dummy2433.1.2 switch=n phases=2 Linecode=2P_Code3

New Line.clineacable(cramaee():s_ncctt1247->s_ncctt1292) Units=mi Length=0.0398090651715 bus1=s_ncctt1247.1.2.3 bus2=s_ncctt1292.1.2.3 switch=n phases=3 Linecode=3P_Code1

New Line.clineacable(cramaee():s_dummy1151->s_ncctt182_bt) Units=mi Length=0.000621371 bus1=s_ncctt182_bt.1.2 bus2=s_dummy1151.1.2 switch=n phases=2 Linecode=2P_Code8

New Line.clineacable(cramaee():s_dummy935->s_ncctt404_bt) Units=mi Length=0.000621371 bus1=s_ncctt404_bt.1.2 bus2=s_dummy935.1.2 switch=n phases=2 Linecode=2P_Code3

New Line.clineacable(cramaee():s_ncctt336_bt->uclv44836) Units=mi Length=0.000621371 bus1=s_ncctt336_bt.1.2 bus2=uclv44836.1.2 switch=n phases=2 Linecode=2P_Code0

New Line.clineacable(cramaee():s_dummy1158->s_dummy1160) Units=mi Length=0.0152073717169 bus1=s_dummy1158.1.2 bus2=s_dummy1160.1.2 switch=n phases=2 Linecode=2P_Code7

New Line.clineacable(cramaee():s_ncctt348->s_ncctt854) Units=mi Length=0.062337802833 bus1=s_ncctt854.1.2.3 bus2=s_ncctt348.1.2.3 switch=n phases=3 Linecode=3P_Code1

New Line.clineacable(cramaee():s_ncctt1330->s_ncctt689) Units=mi Length=0.073644269549 bus1=s_ncctt689.1 bus2=s_ncctt1330.1 switch=n phases=1 Linecode=1P_Code9

New Line.breaker(cramaee():s_nssee3_69->s_nst0_69)_s_1160sd3sd23sd13 Units=mi Length=0.000621371 bus1=s_nst0_69.1.2.3 bus2=s_nssee3_69->s_nst0_69_s_p_s_p.1.2.3 switch=y phases=3 Linecode=3P_Code5

New Line.clineacable(cramaee():s_ncctt1277_bt->uclv48813) Units=mi Length=0.0165435057782 bus1=s_ncctt1277_bt.1.2.3 bus2=uclv48813.1.2.3 switch=n phases=3 Linecode=3P_Code2

New Line.clineacable(cramaee():s_ncctt545->s_ncctt562) Units=mi Length=0.0384929392564 bus1=s_ncctt545.2 bus2=s_ncctt562.2 switch=n phases=1 Linecode=1P_Code9

New Line.clineacable(cramaee():s_dummy2165->uclv21209) Units=mi Length=0.0076063888223 bus1=s_dummy2165.1.2 bus2=uclv21209.1.2 switch=n phases=2 Linecode=2P_Code7

New Line.fuse(cramaee():s_ncctt1243->s_ncctt49)_s_1780 Units=mi Length=0.000621371 bus1=s_ncctt1243.3 bus2=s_ncctt1243->s_ncctt49_s.3 switch=y phases=3 Linecode=1P_Code4

New Line.clineacable(cramaee():s_dummy202->s_ncctt65_bt) Units=mi Length=0.00504651428618 bus1=s_ncctt65_bt.1.2 bus2=s_dummy202.1.2 switch=n phases=2 Linecode=2P_Code0

New Line.clineacable(cramaee():s_ncctt523_bt->uclv29959) Units=mi Length=0.000621371 bus1=s_ncctt523_bt.1.2 bus2=uclv29959.1.2 switch=n phases=2 Linecode=2P_Code0

New Line.clineacable(cramaee():s_dummy641->s_dummy643) Units=mi Length=0.0360443025567 bus1=s_dummy641.1.2 bus2=s_dummy643.1.2 switch=n phases=2 Linecode=2P_Code0

New Line.fuse(cramaee():s_ncctt1576->ucmv60)_s_1691 Units=mi Length=0.000621371 bus1=ucmv60.3 bus2=s_ncctt1576->ucmv60_s.3 switch=y phases=3 Linecode=1P_Code4

New Line.clineacable(cramaee():s_dummy1410->s_ncctt670_bt) Units=mi Length=0.0093697154461 bus1=s_ncctt670_bt.1.2 bus2=s_dummy1410.1.2 switch=n phases=2 Linecode=2P_Code7

New Line.clineacable(cramaee():s_dummy916->uclv46430) Units=mi Length=0.0337852461491 bus1=s_dummy916.1.2 bus2=uclv46430.1.2 switch=n phases=2 Linecode=2P_Code0

New Line.clineacable(cramaee():s_ncctt455_bt->uclv40778) Units=mi Length=0.0092240039466 bus1=s_ncctt455_bt.1.2 bus2=uclv40778.1.2 switch=n phases=2 Linecode=2P_Code0

New Line.clineacable(cramaee():s_ncctt594->ucmv44) Units=mi Length=0.13583791431 bus1=ucmv44.1.2.3 bus2=s_ncctt594.1.2.3 switch=n phases=3 Linecode=3P_Code1

New Line.clineacable(cramaee():s_dummy48->s_dummy58) Units=mi Length=0.000621371 bus1=s_dummy48.1.2 bus2=s_dummy58.1.2 switch=n phases=2 Linecode=2P_Code3

New Line.clineacable(cramaee():s_dummy1193->s_ncctt512_bt) Units=mi Length=0.000621371 bus1=s_ncctt512_bt.1.2 bus2=s_dummy1193.1.2 switch=n phases=2 Linecode=2P_Code3

New Line.clineacable(cramaee():s_ncctt461->s_ncctt684) Units=mi Length=0.070020433877 bus1=s_ncctt461.1.2.3 bus2=s_ncctt684.1.2.3 switch=n phases=3 Linecode=3P_Code1

New Line.clineacable(cramaee():s_dummy1070->s_ncctt189_bt) Units=mi Length=0.0118126355326 bus1=s_ncctt189_bt.1.2 bus2=s_dummy1070.1.2 switch=n phases=2 Linecode=2P_Code0

New Line.clineacable(cramaee():s_ncctt519->s_ncctt841) Units=mi Length=0.062906978669 bus1=s_ncctt519.1.2.3 bus2=s_ncctt841.1.2.3 switch=n phases=3 Linecode=3P_Code1

New Line.clineacable(cramaee():s_ncctt840_bt->uclv29235) Units=mi Length=0.007701272174 bus1=s_ncctt840_bt.1.2 bus2=uclv29235.1.2 switch=n phases=2 Linecode=2P_Code0

New Line.clineacable(cramaee():s_ncctt750_bt->uclv36946) Units=mi Length=0.0235283371892 bus1=s_ncctt750_bt.1.2.3 bus2=uclv36946.1.2.3 switch=n phases=3 Linecode=3P_Code2

New Line.clineacable(cramaee():s_dummy1502->s_ncctt736_bt) Units=mi Length=0.000621371 bus1=s_ncctt736_bt.1.2 bus2=s_dummy1502.1.2 switch=n phases=2 Linecode=2P_Code3

New Line.clineacable(cramaee():s_dummy31->uclv3669) Units=mi Length=0.00548392840163 bus1=s_dummy31.1.2 bus2=uclv3669.1.2 switch=n phases=2 Linecode=2P_Code7

New Line.clineacable(cramaee():s_dummy1162->s_dummy1165) Units=mi Length=0.000621371 bus1=s_dummy1162.1.2 bus2=s_dummy1165.1.2 switch=n phases=2 Linecode=2P_Code8

New Line.clineacable(cramaee():s_dummy1607->s_ncctt839_bt) Units=mi Length=0.000621371 bus1=s_ncctt839_bt.1.2 bus2=s_dummy1607.1.2 switch=n phases=2 Linecode=2P_Code3

New Line.clineacable(cramaee():s_ncctt454->ucmv59) Units=mi Length=0.0344005898504 bus1=s_ncctt454.1.2.3 bus2=ucmv59.1.2.3 switch=n phases=3 Linecode=3P_Code1

New Line.clineacable(cramaee():s_ncctt1310->s_ncctt251) Units=mi Length=0.029040395056 bus1=s_ncctt251.1.2.3 bus2=s_ncctt1310.1.2.3 switch=n phases=3 Linecode=3P_Code1

New Line.clineacable(cramaee():s_ncctt613->s_ncctt845) Units=mi Length=0.0130244953939 bus1=s_ncctt845.1.2.3 bus2=s_ncctt613.1.2.3 switch=n phases=3 Linecode=3P_Code1

New Line.switch(cramaee():s_ncctt1243->s_ncctt191)_s_1550 Units=mi Length=0.000621371 bus1=s_ncctt1243->s_ncctt191_s.1.2.3 bus2=s_ncctt1243.1.2.3 switch=y phases=3 Linecode=3P_Code5

New Line.clineacable(cramaee():s_ncctt133->s_ncctt1358) Units=mi Length=0.070846235936 bus1=s_ncctt133.1.2.3 bus2=s_ncctt1358.1.2.3 switch=n phases=3 Linecode=3P_Code1

New Line.clineacable(cramaee():s_dummy838->s_ncctt364_bt) Units=mi Length=0.000621371 bus1=s_ncctt364_bt.1.2 bus2=s_dummy838.1.2 switch=n phases=2 Linecode=2P_Code3

New Line.clineacable(cramaee():s_ncctt1037->s_ncctt662) Units=mi Length=0.0190527882875 bus1=s_ncctt1037.1.2.3 bus2=s_ncctt662.1.2.3 switch=n phases=3 Linecode=3P_Code1

New Line.clineacable(cramaee():s_ncctt718_bt->uclv34176) Units=mi Length=0.0193465724963 bus1=s_ncctt718_bt.1.2.3 bus2=uclv34176.1.2.3 switch=n phases=3 Linecode=3P_Code2

New Line.clineacable(cramaee():s_dummy330->s_dummy332) Units=mi Length=0.0076728755193 bus1=s_dummy330.1.2 bus2=s_dummy332.1.2 switch=n phases=2 Linecode=2P_Code0

New Line.clineacable(cramaee():s_dummy2102->s_ncctt1177_bt) Units=mi Length=0.000621371 bus1=s_ncctt1177_bt.1.2 bus2=s_dummy2102.1.2 switch=n phases=2 Linecode=2P_Code3

New Line.clineacable(cramaee():s_dummy1538->s_ncctt778_bt) Units=mi Length=0.000621371 bus1=s_ncctt778_bt.1.2 bus2=s_dummy1538.1.2 switch=n phases=2 Linecode=2P_Code3

New Line.clineacable(cramaee():s_dummy825->uclv30510) Units=mi Length=0.0141483069845 bus1=s_dummy825.1.2 bus2=uclv30510.1.2 switch=n phases=2 Linecode=2P_Code0

New Line.clineacable(cramaee():s_dummy1345->s_ncctt605_bt) Units=mi Length=0.000621371 bus1=s_ncctt605_bt.1.2 bus2=s_dummy1345.1.2 switch=n phases=2 Linecode=2P_Code3

New Line.clineacable(cramaee():s_ncctt332_bt->uclv44603) Units=mi Length=0.0200287757172 bus1=s_ncctt332_bt.1.2 bus2=uclv44603.1.2 switch=n phases=2 Linecode=2P_Code0

New Line.clineacable(cramaee():s_ncctt1122_bt->uclv12814) Units=mi Length=0.000621371 bus1=s_ncctt1122_bt.1.2.3 bus2=uclv12814.1.2.3 switch=n phases=3 Linecode=3P_Code2

New Line.clineacable(cramaee():s_ncctt951_bt->uclv12564) Units=mi Length=0.0109462579473 bus1=s_ncctt951_bt.1.2.3 bus2=uclv12564.1.2.3 switch=n phases=3 Linecode=3P_Code2

New Line.clineacable(cramaee():s_dummy233->s_dummy234) Units=mi Length=0.000621371 bus1=s_dummy233.1.2 bus2=s_dummy234.1.2 switch=n phases=2 Linecode=2P_Code3

New Line.switch(cramaee():s_ncctt635->s_ncctt774)_s_1642 Units=mi Length=0.000621371 bus1=s_ncctt635->s_ncctt774_s.1.2.3 bus2=s_ncctt635.1.2.3 switch=y phases=3 Linecode=3P_Code5

New Line.clineacable(cramaee():s_dummy992->s_ncctt461_bt) Units=mi Length=0.000621371 bus1=s_ncctt461_bt.1.2 bus2=s_dummy992.1.2 switch=n phases=2 Linecode=2P_Code3

New Line.clineacable(cramaee():s_dummy2295->s_ncctt1265_bt) Units=mi Length=0.000621371 bus1=s_ncctt1265_bt.1.2 bus2=s_dummy2295.1.2 switch=n phases=2 Linecode=2P_Code3

New Line.clineacable(cramaee():s_ncctt780_bt->uclv36223) Units=mi Length=0.0303585714954 bus1=s_ncctt780_bt.1.2 bus2=uclv36223.1.2 switch=n phases=2 Linecode=2P_Code0

New Line.clineacable(cramaee():s_ncctt504->s_ncctt505) Units=mi Length=0.0108869170168 bus1=s_ncctt504->s_ncctt505_s.3 bus2=s_ncctt504->s_ncctt505_s_s.3 switch=n phases=1 Linecode=1P_Code6

New Line.clineacable(cramaee():s_ncctt1095->s_ncctt896) Units=mi Length=0.060396639829 bus1=s_ncctt896.1.2.3 bus2=s_ncctt1095.1.2.3 switch=n phases=3 Linecode=3P_Code1

New Line.clineacable(cramaee():s_ncctt889_bt->uclv22055) Units=mi Length=0.0265295591192 bus1=s_ncctt889_bt.1.2.3 bus2=uclv22055.1.2.3 switch=n phases=3 Linecode=3P_Code2

New Line.clineacable(cramaee():s_dummy1181->s_ncctt507_bt) Units=mi Length=0.000621371 bus1=s_ncctt507_bt.1.2 bus2=s_dummy1181.1.2 switch=n phases=2 Linecode=2P_Code8

New Line.clineacable(cramaee():s_dummy2331->s_dummy2332) Units=mi Length=0.000621371 bus1=s_dummy2332.1.2 bus2=s_dummy2331.1.2 switch=n phases=2 Linecode=2P_Code0

New Line.clineacable(cramaee():s_dummy41->uclv6879) Units=mi Length=0.0435274113726 bus1=s_dummy41.1.2 bus2=uclv6879.1.2 switch=n phases=2 Linecode=2P_Code0

New Line.clineacable(cramaee():s_ncctt1185->s_ncctt35) Units=mi Length=0.320684602132 bus1=s_ncctt35.1.2.3 bus2=s_ncctt1185.1.2.3 switch=n phases=3 Linecode=3P_Code1

New Line.clineacable(cramaee():s_ncctt1061->s_ncctt1117) Units=mi Length=0.0373471311324 bus1=s_ncctt1117.1.2.3 bus2=s_ncctt1061.1.2.3 switch=n phases=3 Linecode=3P_Code1

New Line.clineacable(cramaee():s_ncctt593->s_ncctt706) Units=mi Length=0.10224038434 bus1=s_ncctt593->s_ncctt706_s.1.2.3 bus2=s_ncctt593->s_ncctt706_s_s.1.2.3 switch=n phases=3 Linecode=3P_Code10

New Line.clineacable(cramaee():s_ncctt68_bt->uclv47469) Units=mi Length=0.021593884992 bus1=s_ncctt68_bt.1.2 bus2=uclv47469.1.2 switch=n phases=2 Linecode=2P_Code0

New Line.clineacable(cramaee():s_ncctt726_bt->uclv35567) Units=mi Length=0.000621371 bus1=s_ncctt726_bt.1.2 bus2=uclv35567.1.2 switch=n phases=2 Linecode=2P_Code0

New Line.switch(cramaee():s_ncctt1216->s_ncctt1220)_s_1055 Units=mi Length=0.000621371 bus1=s_ncctt1216.1 bus2=s_ncctt1216->s_ncctt1220_s.1 switch=y phases=3 Linecode=1P_Code4

New Line.clineacable(cramaee():s_ncctt1165->s_ncctt454) Units=mi Length=0.0620194744697 bus1=s_ncctt1165.1.2.3 bus2=s_ncctt454.1.2.3 switch=n phases=3 Linecode=3P_Code1

New Line.clineacable(cramaee():s_dummy103->uclv7815) Units=mi Length=0.0084894191504 bus1=s_dummy103.1.2 bus2=uclv7815.1.2 switch=n phases=2 Linecode=2P_Code0

New Line.clineacable(cramaee():s_dummy742->s_ncctt316_bt) Units=mi Length=0.0216010928956 bus1=s_ncctt316_bt.1.2 bus2=s_dummy742.1.2 switch=n phases=2 Linecode=2P_Code0

New Line.clineacable(cramaee():s_dummy1915->s_ncctt1077_bt) Units=mi Length=0.000621371 bus1=s_ncctt1077_bt.1.2 bus2=s_dummy1915.1.2 switch=n phases=2 Linecode=2P_Code3

New Line.clineacable(cramaee():s_ncctt117_bt->uclv60596) Units=mi Length=0.0084401444301 bus1=s_ncctt117_bt.1.2 bus2=uclv60596.1.2 switch=n phases=2 Linecode=2P_Code7

New Line.clineacable(cramaee():s_ncctt817_bt->uclv27653) Units=mi Length=0.0093101881043 bus1=s_ncctt817_bt.1.2 bus2=uclv27653.1.2 switch=n phases=2 Linecode=2P_Code7

New Line.clineacable(cramaee():s_dummy1482->s_dummy1483) Units=mi Length=0.0107612136635 bus1=s_dummy1482.1.2 bus2=s_dummy1483.1.2 switch=n phases=2 Linecode=2P_Code0

New Line.clineacable(cramaee():s_dummy2267->s_dummy2270) Units=mi Length=0.000621371 bus1=s_dummy2267.1.2 bus2=s_dummy2270.1.2 switch=n phases=2 Linecode=2P_Code8

New Line.clineacable(cramaee():s_dummy925->s_ncctt409_bt) Units=mi Length=0.000621371 bus1=s_ncctt409_bt.1.2 bus2=s_dummy925.1.2 switch=n phases=2 Linecode=2P_Code3

New Line.clineacable(cramaee():s_dummy611->uclv8182) Units=mi Length=0.0175518044999 bus1=s_dummy611.1.2 bus2=uclv8182.1.2 switch=n phases=2 Linecode=2P_Code0

New Line.clineacable(cramaee():s_ncctt703_bt->uclv34228) Units=mi Length=0.0121116392578 bus1=s_ncctt703_bt.1.2 bus2=uclv34228.1.2 switch=n phases=2 Linecode=2P_Code0

New Line.clineacable(cramaee():s_nssee2_69->s_nst0_69)sd3 Units=mi Length=0.405463840001 bus1=s_nssee2_69->s_nst0_69_s_s.1.2.3 bus2=s_nssee2_69->s_nst0_69_s.1.2.3 switch=n phases=3 Linecode=3P_Code1

New Line.clineacable(cramaee():s_ncctt551->s_ncctt821) Units=mi Length=0.0190432813112 bus1=s_ncctt551.1.2.3 bus2=s_ncctt821.1.2.3 switch=n phases=3 Linecode=3P_Code1

New Line.clineacable(cramaee():s_ncctt85_bt->uclv58398) Units=mi Length=0.0322170300193 bus1=s_ncctt85_bt.1.2.3 bus2=uclv58398.1.2.3 switch=n phases=3 Linecode=3P_Code2

New Line.clineacable(cramaee():s_ncctt876_bt->uclv51599) Units=mi Length=0.0256795235912 bus1=s_ncctt876_bt.1.2.3 bus2=uclv51599.1.2.3 switch=n phases=3 Linecode=3P_Code2

New Line.clineacable(cramaee():s_ncctt1389->s_ncctt735) Units=mi Length=0.0530415334391 bus1=s_ncctt1389.1.2.3 bus2=s_ncctt735.1.2.3 switch=n phases=3 Linecode=3P_Code1

New Line.clineacable(cramaee():s_ncctt68_bt->uclv62556) Units=mi Length=0.0093950673829 bus1=s_ncctt68_bt.1.2 bus2=uclv62556.1.2 switch=n phases=2 Linecode=2P_Code0

New Line.clineacable(cramaee():s_ncctt601_bt->uclv38639) Units=mi Length=0.0121385446221 bus1=s_ncctt601_bt.1.2 bus2=uclv38639.1.2 switch=n phases=2 Linecode=2P_Code0

New Line.clineacable(cramaee():s_ncctt1571_bt->uclv9969) Units=mi Length=0.000621371 bus1=s_ncctt1571_bt.1.2.3 bus2=uclv9969.1.2.3 switch=n phases=3 Linecode=3P_Code2

New Line.clineacable(cramaee():s_ncctt1588->s_ncctt850) Units=mi Length=0.0201747979022 bus1=s_ncctt1588.1.2.3 bus2=s_ncctt850.1.2.3 switch=n phases=3 Linecode=3P_Code1

New Line.clineacable(cramaee():s_ncctt578_bt->uclv38406) Units=mi Length=0.000621371 bus1=s_ncctt578_bt.1.2.3 bus2=uclv38406.1.2.3 switch=n phases=3 Linecode=3P_Code2

New Line.clineacable(cramaee():s_dummy1366->s_ncctt639_bt) Units=mi Length=0.000621371 bus1=s_ncctt639_bt.1.2 bus2=s_dummy1366.1.2 switch=n phases=2 Linecode=2P_Code3

New Line.clineacable(cramaee():s_ncctt438->s_ncctt738) Units=mi Length=0.0096149705798 bus1=s_ncctt438.1.2.3 bus2=s_ncctt738.1.2.3 switch=n phases=3 Linecode=3P_Code1

New Line.clineacable(cramaee():s_dummy1185->uclv7916) Units=mi Length=0.0204029031963 bus1=s_dummy1185.1.2 bus2=uclv7916.1.2 switch=n phases=2 Linecode=2P_Code7

New Line.clineacable(cramaee():s_dummy1018->s_ncctt138_bt) Units=mi Length=0.0095248096477 bus1=s_ncctt138_bt.1.2 bus2=s_dummy1018.1.2 switch=n phases=2 Linecode=2P_Code7

New Line.clineacable(cramaee():s_ncctt226->s_ncctt736) Units=mi Length=0.051512898642 bus1=s_ncctt736.1.2.3 bus2=s_ncctt226.1.2.3 switch=n phases=3 Linecode=3P_Code1

New Line.clineacable(cramaee():s_ncctt1297->s_ncctt173) Units=mi Length=0.0340831314065 bus1=s_ncctt1297.1.2.3 bus2=s_ncctt173.1.2.3 switch=n phases=3 Linecode=3P_Code1

New Line.clineacable(cramaee():s_ncctt1599_bt->uclv7785) Units=mi Length=0.0096410681618 bus1=s_ncctt1599_bt.1.2 bus2=uclv7785.1.2 switch=n phases=2 Linecode=2P_Code0

New Line.clineacable(cramaee():s_ncctt31_bt->uclv7687) Units=mi Length=0.0102558526292 bus1=s_ncctt31_bt.1.2 bus2=uclv7687.1.2 switch=n phases=2 Linecode=2P_Code7

New Line.clineacable(cramaee():s_dummy2512->s_ncctt1402_bt) Units=mi Length=0.000621371 bus1=s_ncctt1402_bt.1.2 bus2=s_dummy2512.1.2 switch=n phases=2 Linecode=2P_Code3

New Line.clineacable(cramaee():s_ncctt1334->s_nssee2_12.47) Units=mi Length=0.0095838398927 bus1=s_ncctt1334->s_nssee2_1247_s.1.2.3 bus2=s_ncctt1334.1.2.3 switch=n phases=3 Linecode=3P_Code1

New Line.clineacable(cramaee():s_dummy2672->uclv9643) Units=mi Length=0.0079700151315 bus1=s_dummy2672.1.2 bus2=uclv9643.1.2 switch=n phases=2 Linecode=2P_Code7

New Line.clineacable(cramaee():s_dummy2174->s_dummy2179) Units=mi Length=0.0162942738701 bus1=s_dummy2174.1.2 bus2=s_dummy2179.1.2 switch=n phases=2 Linecode=2P_Code7

New Line.clineacable(cramaee():s_dummy2068->s_ncctt1160_bt) Units=mi Length=0.000621371 bus1=s_ncctt1160_bt.1.2 bus2=s_dummy2068.1.2 switch=n phases=2 Linecode=2P_Code8

New Line.clineacable(cramaee():s_dummy294->s_dummy297) Units=mi Length=0.0154891013283 bus1=s_dummy297.1.2 bus2=s_dummy294.1.2 switch=n phases=2 Linecode=2P_Code0

New Line.clineacable(cramaee():s_ncctt642->s_ncctt729) Units=mi Length=0.000621371 bus1=s_ncctt642.1.2.3 bus2=s_ncctt729.1.2.3 switch=n phases=3 Linecode=3P_Code1

New Line.clineacable(cramaee():s_dummy606->uclv29817) Units=mi Length=0.0456792191456 bus1=s_dummy606.1.2 bus2=uclv29817.1.2 switch=n phases=2 Linecode=2P_Code0

New Line.fuse(cramaee():s_ncctt1057->s_ncctt1215)_s_1775 Units=mi Length=0.000621371 bus1=s_ncctt1215.2 bus2=s_ncctt1057->s_ncctt1215_s_s_s.2 switch=y phases=3 Linecode=1P_Code4

New Line.clineacable(cramaee():s_ncctt1435_bt->uclv53733) Units=mi Length=0.0141161821038 bus1=s_ncctt1435_bt.1.2.3 bus2=uclv53733.1.2.3 switch=n phases=3 Linecode=3P_Code2

New Line.clineacable(cramaee():s_dummy153->s_dummy157) Units=mi Length=0.0121923553507 bus1=s_dummy157.1.2 bus2=s_dummy153.1.2 switch=n phases=2 Linecode=2P_Code0

New Line.clineacable(cramaee():s_dummy2181->uclv19355) Units=mi Length=0.0103875211441 bus1=s_dummy2181.1.2 bus2=uclv19355.1.2 switch=n phases=2 Linecode=2P_Code7

New Line.clineacable(cramaee():s_dummy463->uclv9246) Units=mi Length=0.0183725113167 bus1=s_dummy463.1.2 bus2=uclv9246.1.2 switch=n phases=2 Linecode=2P_Code7

New Line.clineacable(cramaee():s_ncctt548->s_ncctt846) Units=mi Length=0.0182604781254 bus1=s_ncctt548.1.2.3 bus2=s_ncctt846.1.2.3 switch=n phases=3 Linecode=3P_Code1

New Line.clineacable(cramaee():s_dummy1983->s_ncctt923_bt) Units=mi Length=0.000621371 bus1=s_ncctt923_bt.1.2 bus2=s_dummy1983.1.2 switch=n phases=2 Linecode=2P_Code0

New Line.clineacable(cramaee():s_dummy168->uclv59161) Units=mi Length=0.00421983609407 bus1=s_dummy168.1.2 bus2=uclv59161.1.2 switch=n phases=2 Linecode=2P_Code0

New Line.clineacable(cramaee():s_ncctt1450_bt->uclv53673) Units=mi Length=0.008068502435 bus1=s_ncctt1450_bt.1.2.3 bus2=uclv53673.1.2.3 switch=n phases=3 Linecode=3P_Code2

New Line.clineacable(cramaee():s_dummy500->uclv41853) Units=mi Length=0.0327914875088 bus1=s_dummy500.1.2 bus2=uclv41853.1.2 switch=n phases=2 Linecode=2P_Code0

New Line.clineacable(cramaee():s_dummy1162->uclv7892) Units=mi Length=0.0137293165192 bus1=s_dummy1162.1.2 bus2=uclv7892.1.2 switch=n phases=2 Linecode=2P_Code7

New Line.clineacable(cramaee():s_dummy445->uclv9242) Units=mi Length=0.0190307917541 bus1=s_dummy445.1.2 bus2=uclv9242.1.2 switch=n phases=2 Linecode=2P_Code7

New Line.clineacable(cramaee():s_dummy638->uclv48484) Units=mi Length=0.0131003026559 bus1=s_dummy638.1.2 bus2=uclv48484.1.2 switch=n phases=2 Linecode=2P_Code0

New Line.clineacable(cramaee():ucmv100->ucmv61) Units=mi Length=0.154763010857 bus1=ucmv100->ucmv61_s_s.1.2.3 bus2=ucmv100->ucmv61_s.1.2.3 switch=n phases=3 Linecode=3P_Code10

New Line.clineacable(cramaee():s_dummy97->s_ncctt56_bt) Units=mi Length=0.000621371 bus1=s_ncctt56_bt.1.2 bus2=s_dummy97.1.2 switch=n phases=2 Linecode=2P_Code3

New Line.clineacable(cramaee():s_dummy2181->s_dummy2182) Units=mi Length=0.0163141577421 bus1=s_dummy2182.1.2 bus2=s_dummy2181.1.2 switch=n phases=2 Linecode=2P_Code7

New Line.clineacable(cramaee():s_dummy748->uclv31037) Units=mi Length=0.0257176136335 bus1=s_dummy748.1.2 bus2=uclv31037.1.2 switch=n phases=2 Linecode=2P_Code0

New Line.clineacable(cramaee():s_dummy260->s_dummy267) Units=mi Length=0.0135854691327 bus1=s_dummy260.1.2 bus2=s_dummy267.1.2 switch=n phases=2 Linecode=2P_Code0

New Line.clineacable(cramaee():s_dummy420->s_dummy422) Units=mi Length=0.0207541642226 bus1=s_dummy420.1.2 bus2=s_dummy422.1.2 switch=n phases=2 Linecode=2P_Code0

New Line.clineacable(cramaee():s_dummy1586->s_ncctt820_bt) Units=mi Length=0.0399058747733 bus1=s_ncctt820_bt.1.2 bus2=s_dummy1586.1.2 switch=n phases=2 Linecode=2P_Code0

New Line.clineacable(cramaee():s_ncctt353_bt->uclv37313) Units=mi Length=0.000621371 bus1=s_ncctt353_bt.1.2 bus2=uclv37313.1.2 switch=n phases=2 Linecode=2P_Code7

New Line.clineacable(cramaee():s_dummy1264->s_ncctt559_bt) Units=mi Length=0.000621371 bus1=s_ncctt559_bt.1.2 bus2=s_dummy1264.1.2 switch=n phases=2 Linecode=2P_Code8

New Line.clineacable(cramaee():s_ncctt625->s_ncctt807) Units=mi Length=0.0374234354912 bus1=s_ncctt807.1.2.3 bus2=s_ncctt625.1.2.3 switch=n phases=3 Linecode=3P_Code1

New Line.clineacable(cramaee():s_ncctt1187->s_ncctt895) Units=mi Length=0.191169759118 bus1=s_ncctt1187.1.2.3 bus2=s_ncctt895.1.2.3 switch=n phases=3 Linecode=3P_Code1

New Line.clineacable(cramaee():s_dummy1344->s_ncctt619_bt) Units=mi Length=0.000621371 bus1=s_ncctt619_bt.1.2 bus2=s_dummy1344.1.2 switch=n phases=2 Linecode=2P_Code8

New Line.clineacable(cramaee():s_ncctt1057->s_ncctt1215) Units=mi Length=0.01229071838 bus1=s_ncctt1057->s_ncctt1215_s_s.2 bus2=s_ncctt1057->s_ncctt1215_s.2 switch=n phases=1 Linecode=1P_Code6

New Line.clineacable(cramaee():s_ncctt1579_bt->uclv10028) Units=mi Length=0.005308993824 bus1=s_ncctt1579_bt.1.2.3 bus2=uclv10028.1.2.3 switch=n phases=3 Linecode=3P_Code2

New Line.clineacable(cramaee():s_dummy1125->uclv10075) Units=mi Length=0.0082621216386 bus1=s_dummy1125.1.2 bus2=uclv10075.1.2 switch=n phases=2 Linecode=2P_Code0

New Line.clineacable(cramaee():s_dummy1090->uclv9526) Units=mi Length=0.00229150440122 bus1=s_dummy1090.1.2 bus2=uclv9526.1.2 switch=n phases=2 Linecode=2P_Code7

New Line.clineacable(cramaee():s_dummy182->s_ncctt61_bt) Units=mi Length=0.00294414278994 bus1=s_ncctt61_bt.1.2 bus2=s_dummy182.1.2 switch=n phases=2 Linecode=2P_Code0

New Line.clineacable(cramaee():s_ncctt1463->s_ncctt366) Units=mi Length=0.147182284657 bus1=s_ncctt1463->s_ncctt366_s_s.1.2.3 bus2=s_ncctt1463->s_ncctt366_s.1.2.3 switch=n phases=3 Linecode=3P_Code10

New Line.clineacable(cramaee():s_ncctt693->s_ncctt825) Units=mi Length=0.0300080561143 bus1=s_ncctt693.1.2.3 bus2=s_ncctt825.1.2.3 switch=n phases=3 Linecode=3P_Code1

New Line.clineacable(cramaee():s_dummy2155->uclv19332) Units=mi Length=0.0080634693299 bus1=s_dummy2155.1.2 bus2=uclv19332.1.2 switch=n phases=2 Linecode=2P_Code7

New Line.clineacable(cramaee():s_ncctt1429_bt->uclv52911) Units=mi Length=0.00337662321965 bus1=s_ncctt1429_bt.1.2.3 bus2=uclv52911.1.2.3 switch=n phases=3 Linecode=3P_Code2

New Line.clineacable(cramaee():s_ncctt1514->s_ncctt1537) Units=mi Length=0.0233992784325 bus1=s_ncctt1537.1.2.3 bus2=s_ncctt1514.1.2.3 switch=n phases=3 Linecode=3P_Code1

New Line.clineacable(cramaee():s_ncctt1448_bt->uclv53248) Units=mi Length=0.0154551744717 bus1=s_ncctt1448_bt.1.2 bus2=uclv53248.1.2 switch=n phases=2 Linecode=2P_Code0
