New Load.uclvl26296 conn=wye bus1=uclv26296.1.2 kV=0.240178 Vminpu=0.95 Vmaxpu=1.05 model=1 kW=7.72008 kvar=3.73900539512 Phases=2

New Load.uclvl32597 conn=wye bus1=uclv32597 kV=0.48 Vminpu=0.95 Vmaxpu=1.05 model=1 kW=99.881 kvar=48.3745761533 Phases=3

New Load.uclvl27349 conn=wye bus1=uclv27349.1.2 kV=0.240178 Vminpu=0.95 Vmaxpu=1.05 model=1 kW=13.5601 kvar=6.57129630895 Phases=2

New Load.uclvl26523 conn=wye bus1=uclv26523.1.2 kV=0.240178 Vminpu=0.95 Vmaxpu=1.05 model=1 kW=1.66002 kvar=0.800219242954 Phases=2

New Load.uclvl27345 conn=wye bus1=uclv27345.1.2 kV=0.240178 Vminpu=0.95 Vmaxpu=1.05 model=1 kW=0.870009 kvar=0.419884997277 Phases=2

New Load.uclvl14322 conn=wye bus1=uclv14322.1.2 kV=0.240178 Vminpu=0.95 Vmaxpu=1.05 model=1 kW=0.760008 kvar=0.370023806178 Phases=2

New Load.uclvl43231 conn=wye bus1=uclv43231 kV=0.48 Vminpu=0.95 Vmaxpu=1.05 model=1 kW=73.1607 kvar=35.4333442154 Phases=3

New Load.uclvl9968 conn=wye bus1=uclv9968 kV=0.48 Vminpu=0.95 Vmaxpu=1.05 model=1 kW=28.5803 kvar=13.8420710529 Phases=3

New Load.uclvl9969 conn=wye bus1=uclv9969 kV=0.48 Vminpu=0.95 Vmaxpu=1.05 model=1 kW=82.1108 kvar=39.7680754859 Phases=3

New Load.uclvl45682 conn=wye bus1=uclv45682.1.2 kV=0.240178 Vminpu=0.95 Vmaxpu=1.05 model=1 kW=2.74003 kvar=1.33015976772 Phases=2

New Load.uclvl52443 conn=wye bus1=uclv52443.1.2 kV=0.240178 Vminpu=0.95 Vmaxpu=1.05 model=1 kW=2.74003 kvar=1.33015976772 Phases=2

New Load.uclvl9962 conn=wye bus1=uclv9962 kV=0.48 Vminpu=0.95 Vmaxpu=1.05 model=1 kW=28.5803 kvar=13.8420710529 Phases=3

New Load.uclvl9963 conn=wye bus1=uclv9963 kV=0.48 Vminpu=0.95 Vmaxpu=1.05 model=1 kW=28.5803 kvar=13.8420710529 Phases=3

New Load.uclvl9960 conn=wye bus1=uclv9960 kV=0.48 Vminpu=0.95 Vmaxpu=1.05 model=1 kW=28.5803 kvar=13.8420710529 Phases=3

New Load.uclvl9961 conn=wye bus1=uclv9961 kV=0.48 Vminpu=0.95 Vmaxpu=1.05 model=1 kW=28.5803 kvar=13.8420710529 Phases=3

New Load.uclvl9966 conn=wye bus1=uclv9966 kV=0.48 Vminpu=0.95 Vmaxpu=1.05 model=1 kW=128.431 kvar=62.2019722464 Phases=3

New Load.uclvl9967 conn=wye bus1=uclv9967 kV=0.48 Vminpu=0.95 Vmaxpu=1.05 model=1 kW=28.5803 kvar=13.8420710529 Phases=3

New Load.uclvl9964 conn=wye bus1=uclv9964 kV=0.48 Vminpu=0.95 Vmaxpu=1.05 model=1 kW=28.5803 kvar=13.8420710529 Phases=3

New Load.uclvl9965 conn=wye bus1=uclv9965 kV=0.48 Vminpu=0.95 Vmaxpu=1.05 model=1 kW=28.5803 kvar=13.8420710529 Phases=3

New Load.uclvl21165 conn=wye bus1=uclv21165.1.2 kV=0.240178 Vminpu=0.95 Vmaxpu=1.05 model=1 kW=1.66002 kvar=0.800219242954 Phases=2

New Load.uclvl21164 conn=wye bus1=uclv21164.1.2 kV=0.240178 Vminpu=0.95 Vmaxpu=1.05 model=1 kW=1.66002 kvar=0.800219242954 Phases=2

New Load.uclvl21167 conn=wye bus1=uclv21167.1.2 kV=0.240178 Vminpu=0.95 Vmaxpu=1.05 model=1 kW=1.66002 kvar=0.800219242954 Phases=2

New Load.uclvl21166 conn=wye bus1=uclv21166.1.2 kV=0.240178 Vminpu=0.95 Vmaxpu=1.05 model=1 kW=1.66002 kvar=0.800219242954 Phases=2

New Load.uclvl21161 conn=wye bus1=uclv21162.1.2 kV=0.240178 Vminpu=0.95 Vmaxpu=1.05 model=1 kW=1.66002 kvar=0.800219242954 Phases=2

New Load.uclvl19339 conn=wye bus1=uclv19340.1.2 kV=0.240178 Vminpu=0.95 Vmaxpu=1.05 model=1 kW=1.66002 kvar=0.800219242954 Phases=2

New Load.uclvl21163 conn=wye bus1=uclv21163.1.2 kV=0.240178 Vminpu=0.95 Vmaxpu=1.05 model=1 kW=1.66002 kvar=0.800219242954 Phases=2

New Load.uclvl21162 conn=wye bus1=uclv21162.1.2 kV=0.240178 Vminpu=0.95 Vmaxpu=1.05 model=1 kW=1.66002 kvar=0.800219242954 Phases=2

New Load.uclvl57031 conn=wye bus1=uclv57031.1.2 kV=0.240178 Vminpu=0.95 Vmaxpu=1.05 model=1 kW=2.74003 kvar=1.33015976772 Phases=2

New Load.uclvl35907 conn=wye bus1=uclv35907.1.2 kV=0.240178 Vminpu=0.95 Vmaxpu=1.05 model=1 kW=2.74003 kvar=1.33015976772 Phases=2

New Load.uclvl7695 conn=wye bus1=uclv7695.1.2 kV=0.240178 Vminpu=0.95 Vmaxpu=1.05 model=1 kW=0.760008 kvar=0.370023806178 Phases=2

New Load.uclvl21169 conn=wye bus1=uclv21169.1.2 kV=0.240178 Vminpu=0.95 Vmaxpu=1.05 model=1 kW=1.66002 kvar=0.800219242954 Phases=2

New Load.uclvl21168 conn=wye bus1=uclv21167.1.2 kV=0.240178 Vminpu=0.95 Vmaxpu=1.05 model=1 kW=1.66002 kvar=0.800219242954 Phases=2

New Load.uclvl37911 conn=wye bus1=uclv37911.1.2 kV=0.240178 Vminpu=0.95 Vmaxpu=1.05 model=1 kW=0.760008 kvar=0.370023806178 Phases=2

New Load.uclvl26745 conn=wye bus1=uclv26745 kV=0.48 Vminpu=0.95 Vmaxpu=1.05 model=1 kW=24.2402 kvar=11.7400646857 Phases=3

New Load.uclvl53959 conn=wye bus1=uclv53959.1.2 kV=0.240178 Vminpu=0.95 Vmaxpu=1.05 model=1 kW=2.74003 kvar=1.33015976772 Phases=2

New Load.uclvl7698 conn=wye bus1=uclv7699.1.2 kV=0.240178 Vminpu=0.95 Vmaxpu=1.05 model=1 kW=1.66002 kvar=0.800219242954 Phases=2

New Load.uclvl33406 conn=wye bus1=uclv33406.1.2 kV=0.240178 Vminpu=0.95 Vmaxpu=1.05 model=1 kW=0.760008 kvar=0.370023806178 Phases=2

New Load.uclvl7699 conn=wye bus1=uclv7699.1.2 kV=0.240178 Vminpu=0.95 Vmaxpu=1.05 model=1 kW=0.760008 kvar=0.370023806178 Phases=2

New Load.uclvl44400 conn=wye bus1=uclv44400.1.2 kV=0.240178 Vminpu=0.95 Vmaxpu=1.05 model=1 kW=2.74003 kvar=1.33015976772 Phases=2

New Load.uclvl42030 conn=wye bus1=uclv42030.1.2 kV=0.240178 Vminpu=0.95 Vmaxpu=1.05 model=1 kW=10.6601 kvar=5.1599024372 Phases=2

New Load.uclvl27905 conn=wye bus1=uclv27905 kV=0.48 Vminpu=0.95 Vmaxpu=1.05 model=1 kW=53.6005 kvar=25.9599069804 Phases=3

New Load.uclvl44976 conn=wye bus1=uclv44976.1.2 kV=0.240178 Vminpu=0.95 Vmaxpu=1.05 model=1 kW=2.74003 kvar=1.33015976772 Phases=2

New Load.uclvl44974 conn=wye bus1=uclv44974 kV=0.48 Vminpu=0.95 Vmaxpu=1.05 model=1 kW=60.6406 kvar=29.3695830306 Phases=3

New Load.uclvl53327 conn=wye bus1=uclv53327.1.2 kV=0.240178 Vminpu=0.95 Vmaxpu=1.05 model=1 kW=2.74003 kvar=1.33015976772 Phases=2

New Load.uclvl29898 conn=wye bus1=uclv29898 kV=0.48 Vminpu=0.95 Vmaxpu=1.05 model=1 kW=28.5803 kvar=13.8420710529 Phases=3

New Load.uclvl24846 conn=wye bus1=uclv24846.1.2 kV=0.240178 Vminpu=0.95 Vmaxpu=1.05 model=1 kW=8.13008 kvar=3.93987984568 Phases=2

New Load.uclvl53322 conn=wye bus1=uclv53322 kV=0.48 Vminpu=0.95 Vmaxpu=1.05 model=1 kW=295.483 kvar=143.108948504 Phases=3

New Load.uclvl48049 conn=wye bus1=uclv48049 kV=0.48 Vminpu=0.95 Vmaxpu=1.05 model=1 kW=28.5803 kvar=13.8420710529 Phases=3

New Load.uclvl29897 conn=wye bus1=uclv29897.1.2 kV=0.240178 Vminpu=0.95 Vmaxpu=1.05 model=1 kW=6.88007 kvar=3.33022110122 Phases=2

New Load.uclvl51807 conn=wye bus1=uclv51807 kV=0.48 Vminpu=0.95 Vmaxpu=1.05 model=1 kW=110.961 kvar=53.7408650749 Phases=3

New Load.uclvl39714 conn=wye bus1=uclv39714.1.2 kV=0.240178 Vminpu=0.95 Vmaxpu=1.05 model=1 kW=17.3002 kvar=8.37886927812 Phases=2

New Load.uclvl37220 conn=wye bus1=uclv37220 kV=0.48 Vminpu=0.95 Vmaxpu=1.05 model=1 kW=31.1203 kvar=15.0722491992 Phases=3

New Load.uclvl37392 conn=wye bus1=uclv37392 kV=0.48 Vminpu=0.95 Vmaxpu=1.05 model=1 kW=142.961 kvar=69.2391724297 Phases=3

New Load.uclvl22029 conn=wye bus1=uclv22029 kV=0.48 Vminpu=0.95 Vmaxpu=1.05 model=1 kW=326.763 kvar=158.258543943 Phases=3

New Load.uclvl52558 conn=wye bus1=uclv52558.1.2 kV=0.240178 Vminpu=0.95 Vmaxpu=1.05 model=1 kW=2.74003 kvar=1.33015976772 Phases=2

New Load.uclvl61762 conn=wye bus1=uclv61762.1.2 kV=0.240178 Vminpu=0.95 Vmaxpu=1.05 model=1 kW=2.74003 kvar=1.33015976772 Phases=2

New Load.uclvl53829 conn=wye bus1=uclv53829.1.2 kV=0.240178 Vminpu=0.95 Vmaxpu=1.05 model=1 kW=2.74003 kvar=1.33015976772 Phases=2

New Load.uclvl32667 conn=wye bus1=uclv32667.1.2 kV=0.240178 Vminpu=0.95 Vmaxpu=1.05 model=1 kW=8.13008 kvar=3.93987984568 Phases=2

New Load.uclvl15108 conn=wye bus1=uclv15108.1.2 kV=0.240178 Vminpu=0.95 Vmaxpu=1.05 model=1 kW=0.760008 kvar=0.370023806178 Phases=2

New Load.uclvl29438 conn=wye bus1=uclv29438 kV=0.48 Vminpu=0.95 Vmaxpu=1.05 model=1 kW=83.8408 kvar=40.6059527273 Phases=3

New Load.uclvl11337 conn=wye bus1=uclv11337.1.2 kV=0.240178 Vminpu=0.95 Vmaxpu=1.05 model=1 kW=2.74003 kvar=1.33015976772 Phases=2

New Load.uclvl11336 conn=wye bus1=uclv11336.1.2 kV=0.240178 Vminpu=0.95 Vmaxpu=1.05 model=1 kW=2.74003 kvar=1.33015976772 Phases=2

New Load.uclvl11335 conn=wye bus1=uclv11335.1.2 kV=0.240178 Vminpu=0.95 Vmaxpu=1.05 model=1 kW=2.74003 kvar=1.33015976772 Phases=2

New Load.uclvl11334 conn=wye bus1=uclv11333.1.2 kV=0.240178 Vminpu=0.95 Vmaxpu=1.05 model=1 kW=0.760008 kvar=0.370023806178 Phases=2

New Load.uclvl11333 conn=wye bus1=uclv11333.1.2 kV=0.240178 Vminpu=0.95 Vmaxpu=1.05 model=1 kW=2.74003 kvar=1.33015976772 Phases=2

New Load.uclvl11332 conn=wye bus1=uclv11332.1.2 kV=0.240178 Vminpu=0.95 Vmaxpu=1.05 model=1 kW=1.66002 kvar=0.800219242954 Phases=2

New Load.uclvl11331 conn=wye bus1=uclv11331.1.2 kV=0.240178 Vminpu=0.95 Vmaxpu=1.05 model=1 kW=0.760008 kvar=0.370023806178 Phases=2

New Load.uclvl11330 conn=wye bus1=uclv11330.1.2 kV=0.240178 Vminpu=0.95 Vmaxpu=1.05 model=1 kW=1.66002 kvar=0.800219242954 Phases=2

New Load.uclvl11339 conn=wye bus1=uclv11338.1.2 kV=0.240178 Vminpu=0.95 Vmaxpu=1.05 model=1 kW=0.760008 kvar=0.370023806178 Phases=2

New Load.uclvl11338 conn=wye bus1=uclv11338.1.2 kV=0.240178 Vminpu=0.95 Vmaxpu=1.05 model=1 kW=2.74003 kvar=1.33015976772 Phases=2

New Load.uclvl46632 conn=wye bus1=uclv46632.1.2 kV=0.240178 Vminpu=0.95 Vmaxpu=1.05 model=1 kW=4.16004 kvar=2.01008397043 Phases=2

New Load.uclvl21219 conn=wye bus1=uclv21220.1.2 kV=0.240178 Vminpu=0.95 Vmaxpu=1.05 model=1 kW=1.66002 kvar=0.800219242954 Phases=2

New Load.uclvl21218 conn=wye bus1=uclv21218.1.2 kV=0.240178 Vminpu=0.95 Vmaxpu=1.05 model=1 kW=1.66002 kvar=0.800219242954 Phases=2

New Load.uclvl21217 conn=wye bus1=uclv21217.1.2 kV=0.240178 Vminpu=0.95 Vmaxpu=1.05 model=1 kW=1.66002 kvar=0.800219242954 Phases=2

New Load.uclvl21216 conn=wye bus1=uclv21218.1.2 kV=0.240178 Vminpu=0.95 Vmaxpu=1.05 model=1 kW=1.66002 kvar=0.800219242954 Phases=2

New Load.uclvl21215 conn=wye bus1=uclv21215.1.2 kV=0.240178 Vminpu=0.95 Vmaxpu=1.05 model=1 kW=2.74003 kvar=1.33015976772 Phases=2

New Load.uclvl21214 conn=wye bus1=uclv21214.1.2 kV=0.240178 Vminpu=0.95 Vmaxpu=1.05 model=1 kW=1.66002 kvar=0.800219242954 Phases=2

New Load.uclvl21213 conn=wye bus1=uclv21213.1.2 kV=0.240178 Vminpu=0.95 Vmaxpu=1.05 model=1 kW=1.66002 kvar=0.800219242954 Phases=2

New Load.uclvl21212 conn=wye bus1=uclv21212.1.2 kV=0.240178 Vminpu=0.95 Vmaxpu=1.05 model=1 kW=1.66002 kvar=0.800219242954 Phases=2

New Load.uclvl21211 conn=wye bus1=uclv21211.1.2 kV=0.240178 Vminpu=0.95 Vmaxpu=1.05 model=1 kW=1.66002 kvar=0.800219242954 Phases=2

New Load.uclvl21210 conn=wye bus1=uclv21212.1.2 kV=0.240178 Vminpu=0.95 Vmaxpu=1.05 model=1 kW=1.66002 kvar=0.800219242954 Phases=2

New Load.uclvl12822 conn=wye bus1=uclv12822 kV=0.48 Vminpu=0.95 Vmaxpu=1.05 model=1 kW=28.5803 kvar=13.8420710529 Phases=3

New Load.uclvl12823 conn=wye bus1=uclv12823 kV=0.48 Vminpu=0.95 Vmaxpu=1.05 model=1 kW=28.5803 kvar=13.8420710529 Phases=3

New Load.uclvl12820 conn=wye bus1=uclv12820 kV=0.48 Vminpu=0.95 Vmaxpu=1.05 model=1 kW=128.431 kvar=62.2019722464 Phases=3

New Load.uclvl12821 conn=wye bus1=uclv12821 kV=0.48 Vminpu=0.95 Vmaxpu=1.05 model=1 kW=28.5803 kvar=13.8420710529 Phases=3

New Load.uclvl48890 conn=wye bus1=uclv48890.1.2 kV=0.240178 Vminpu=0.95 Vmaxpu=1.05 model=1 kW=0.450005 kvar=0.219982590806 Phases=2

New Load.uclvl21189 conn=wye bus1=uclv21189.1.2 kV=0.240178 Vminpu=0.95 Vmaxpu=1.05 model=1 kW=1.66002 kvar=0.800219242954 Phases=2

New Load.uclvl21188 conn=wye bus1=uclv21188.1.2 kV=0.240178 Vminpu=0.95 Vmaxpu=1.05 model=1 kW=1.66002 kvar=0.800219242954 Phases=2

New Load.uclvl21187 conn=wye bus1=uclv21187.1.2 kV=0.240178 Vminpu=0.95 Vmaxpu=1.05 model=1 kW=1.66002 kvar=0.800219242954 Phases=2

New Load.uclvl21186 conn=wye bus1=uclv21186.1.2 kV=0.240178 Vminpu=0.95 Vmaxpu=1.05 model=1 kW=1.66002 kvar=0.800219242954 Phases=2

New Load.uclvl21185 conn=wye bus1=uclv21185.1.2 kV=0.240178 Vminpu=0.95 Vmaxpu=1.05 model=1 kW=1.66002 kvar=0.800219242954 Phases=2

New Load.uclvl21184 conn=wye bus1=uclv21184.1.2 kV=0.240178 Vminpu=0.95 Vmaxpu=1.05 model=1 kW=1.66002 kvar=0.800219242954 Phases=2

New Load.uclvl21183 conn=wye bus1=uclv21183.1.2 kV=0.240178 Vminpu=0.95 Vmaxpu=1.05 model=1 kW=1.66002 kvar=0.800219242954 Phases=2

New Load.uclvl21182 conn=wye bus1=uclv21181.1.2 kV=0.240178 Vminpu=0.95 Vmaxpu=1.05 model=1 kW=1.66002 kvar=0.800219242954 Phases=2

New Load.uclvl21181 conn=wye bus1=uclv21181.1.2 kV=0.240178 Vminpu=0.95 Vmaxpu=1.05 model=1 kW=1.66002 kvar=0.800219242954 Phases=2

New Load.uclvl21180 conn=wye bus1=uclv21180.1.2 kV=0.240178 Vminpu=0.95 Vmaxpu=1.05 model=1 kW=1.66002 kvar=0.800219242954 Phases=2

New Load.uclvl29388 conn=wye bus1=uclv29388.1.2 kV=0.240178 Vminpu=0.95 Vmaxpu=1.05 model=1 kW=12.7201 kvar=6.16062560575 Phases=2

New Load.uclvl36694 conn=wye bus1=uclv36694 kV=0.48 Vminpu=0.95 Vmaxpu=1.05 model=1 kW=28.5803 kvar=13.8420710529 Phases=3

New Load.uclvl51499 conn=wye bus1=uclv51499.1.2 kV=0.240178 Vminpu=0.95 Vmaxpu=1.05 model=1 kW=16.1102 kvar=7.79796251853 Phases=2

New Load.uclvl43828 conn=wye bus1=uclv43828.1.2 kV=0.240178 Vminpu=0.95 Vmaxpu=1.05 model=1 kW=1.66002 kvar=0.800219242954 Phases=2

New Load.uclvl24932 conn=wye bus1=uclv24932.1.2 kV=0.240178 Vminpu=0.95 Vmaxpu=1.05 model=1 kW=5.60006 kvar=2.71064654576 Phases=2

New Load.uclvl41034 conn=wye bus1=uclv41034.1.2 kV=0.240178 Vminpu=0.95 Vmaxpu=1.05 model=1 kW=1.66002 kvar=0.800219242954 Phases=2

New Load.uclvl51952 conn=wye bus1=uclv51952.1.2 kV=0.240178 Vminpu=0.95 Vmaxpu=1.05 model=1 kW=3.68004 kvar=1.78023960336 Phases=2

New Load.uclvl58815 conn=wye bus1=uclv58815 kV=0.48 Vminpu=0.95 Vmaxpu=1.05 model=1 kW=28.5803 kvar=13.8420710529 Phases=3

New Load.uclvl56670 conn=wye bus1=uclv56670.1.2 kV=0.240178 Vminpu=0.95 Vmaxpu=1.05 model=1 kW=2.74003 kvar=1.33015976772 Phases=2

New Load.uclvl30629 conn=wye bus1=uclv30629.1.2 kV=0.240178 Vminpu=0.95 Vmaxpu=1.05 model=1 kW=16.1102 kvar=7.79796251853 Phases=2

New Load.uclvl64302 conn=wye bus1=uclv64302.1.2 kV=0.240178 Vminpu=0.95 Vmaxpu=1.05 model=1 kW=2.74003 kvar=1.33015976772 Phases=2

New Load.uclvl42483 conn=wye bus1=uclv42483 kV=0.48 Vminpu=0.95 Vmaxpu=1.05 model=1 kW=28.5803 kvar=13.8420710529 Phases=3

New Load.uclvl64305 conn=wye bus1=uclv64305 kV=0.48 Vminpu=0.95 Vmaxpu=1.05 model=1 kW=71.0207 kvar=34.3968949111 Phases=3

New Load.uclvl42489 conn=wye bus1=uclv42489 kV=0.48 Vminpu=0.95 Vmaxpu=1.05 model=1 kW=40.7404 kvar=19.7314762799 Phases=3

New Load.uclvl58050 conn=wye bus1=uclv58050 kV=0.48 Vminpu=0.95 Vmaxpu=1.05 model=1 kW=28.5803 kvar=13.8420710529 Phases=3

New Load.uclvl53601 conn=wye bus1=uclv53601.1.2 kV=0.240178 Vminpu=0.95 Vmaxpu=1.05 model=1 kW=2.74003 kvar=1.33015976772 Phases=2

New Load.uclvl12592 conn=wye bus1=uclv12592 kV=0.48 Vminpu=0.95 Vmaxpu=1.05 model=1 kW=28.5803 kvar=13.8420710529 Phases=3

New Load.uclvl12593 conn=wye bus1=uclv12593 kV=0.48 Vminpu=0.95 Vmaxpu=1.05 model=1 kW=28.5803 kvar=13.8420710529 Phases=3

New Load.uclvl12590 conn=wye bus1=uclv12590.1.2 kV=0.240178 Vminpu=0.95 Vmaxpu=1.05 model=1 kW=7.73008 kvar=3.75041429997 Phases=2

New Load.uclvl12591 conn=wye bus1=uclv12591 kV=0.48 Vminpu=0.95 Vmaxpu=1.05 model=1 kW=28.5803 kvar=13.8420710529 Phases=3

New Load.uclvl12596 conn=wye bus1=uclv12596 kV=0.48 Vminpu=0.95 Vmaxpu=1.05 model=1 kW=28.5803 kvar=13.8420710529 Phases=3

New Load.uclvl16078 conn=wye bus1=uclv16078 kV=0.48 Vminpu=0.95 Vmaxpu=1.05 model=1 kW=28.5803 kvar=13.8420710529 Phases=3

New Load.uclvl12594 conn=wye bus1=uclv12594.1.2 kV=0.240178 Vminpu=0.95 Vmaxpu=1.05 model=1 kW=6.02006 kvar=2.91053102435 Phases=2

New Load.uclvl12595 conn=wye bus1=uclv12595 kV=0.48 Vminpu=0.95 Vmaxpu=1.05 model=1 kW=28.5803 kvar=13.8420710529 Phases=3

New Load.uclvl42466 conn=wye bus1=uclv42466.1.2 kV=0.240178 Vminpu=0.95 Vmaxpu=1.05 model=1 kW=2.74003 kvar=1.33015976772 Phases=2

New Load.uclvl12598 conn=wye bus1=uclv12598 kV=0.48 Vminpu=0.95 Vmaxpu=1.05 model=1 kW=28.5803 kvar=13.8420710529 Phases=3

New Load.uclvl12599 conn=wye bus1=uclv12599 kV=0.48 Vminpu=0.95 Vmaxpu=1.05 model=1 kW=28.5803 kvar=13.8420710529 Phases=3

New Load.uclvl20388 conn=wye bus1=uclv20388.1.2 kV=0.240178 Vminpu=0.95 Vmaxpu=1.05 model=1 kW=2.74003 kvar=1.33015976772 Phases=2

New Load.uclvl31667 conn=wye bus1=uclv31667 kV=0.48 Vminpu=0.95 Vmaxpu=1.05 model=1 kW=274.243 kvar=132.821946997 Phases=3

New Load.uclvl23850 conn=wye bus1=uclv23850 kV=0.48 Vminpu=0.95 Vmaxpu=1.05 model=1 kW=229.282 kvar=111.046340841 Phases=3

New Load.uclvl23584 conn=wye bus1=uclv23584.1.2 kV=0.240178 Vminpu=0.95 Vmaxpu=1.05 model=1 kW=1.66002 kvar=0.800219242954 Phases=2

New Load.uclvl35372 conn=wye bus1=uclv35372 kV=0.48 Vminpu=0.95 Vmaxpu=1.05 model=1 kW=40.7404 kvar=19.7314762799 Phases=3

New Load.uclvl55891 conn=wye bus1=uclv55891.1.2 kV=0.240178 Vminpu=0.95 Vmaxpu=1.05 model=1 kW=2.74003 kvar=1.33015976772 Phases=2

New Load.uclvl28390 conn=wye bus1=uclv28390.1.2 kV=0.240178 Vminpu=0.95 Vmaxpu=1.05 model=1 kW=1.66002 kvar=0.800219242954 Phases=2

New Load.uclvl8157 conn=wye bus1=uclv8157 kV=0.48 Vminpu=0.95 Vmaxpu=1.05 model=1 kW=142.521 kvar=69.0260707036 Phases=3

New Load.uclvl8158 conn=wye bus1=uclv8158.1.2 kV=0.240178 Vminpu=0.95 Vmaxpu=1.05 model=1 kW=8.13008 kvar=3.93987984568 Phases=2

New Load.uclvl8159 conn=wye bus1=uclv8159.1.2 kV=0.240178 Vminpu=0.95 Vmaxpu=1.05 model=1 kW=2.74003 kvar=1.33015976772 Phases=2

New Load.uclvl46010 conn=wye bus1=uclv46010.1.2 kV=0.240178 Vminpu=0.95 Vmaxpu=1.05 model=1 kW=2.74003 kvar=1.33015976772 Phases=2

New Load.uclvl25512 conn=wye bus1=uclv25512.1.2 kV=0.240178 Vminpu=0.95 Vmaxpu=1.05 model=1 kW=4.88005 kvar=2.35936800055 Phases=2

New Load.uclvl52264 conn=wye bus1=uclv52264.1.2 kV=0.240178 Vminpu=0.95 Vmaxpu=1.05 model=1 kW=0.910009 kvar=0.439963958323 Phases=2

New Load.uclvl38319 conn=wye bus1=uclv38319.1.2 kV=0.240178 Vminpu=0.95 Vmaxpu=1.05 model=1 kW=2.74003 kvar=1.33015976772 Phases=2

New Load.uclvl42795 conn=wye bus1=uclv42795 kV=0.48 Vminpu=0.95 Vmaxpu=1.05 model=1 kW=25.5103 kvar=12.3624265478 Phases=3

New Load.uclvl19309 conn=wye bus1=uclv19309.1.2 kV=0.240178 Vminpu=0.95 Vmaxpu=1.05 model=1 kW=1.66002 kvar=0.800219242954 Phases=2

New Load.uclvl39048 conn=wye bus1=uclv39048 kV=0.48 Vminpu=0.95 Vmaxpu=1.05 model=1 kW=66.6807 kvar=32.2949369761 Phases=3

New Load.uclvl50402 conn=wye bus1=uclv50402 kV=0.48 Vminpu=0.95 Vmaxpu=1.05 model=1 kW=221.442 kvar=107.24925554 Phases=3

New Load.uclvl40355 conn=wye bus1=uclv40355 kV=0.48 Vminpu=0.95 Vmaxpu=1.05 model=1 kW=27.6503 kvar=13.3916514954 Phases=3

New Load.uclvl48273 conn=wye bus1=uclv48273.1.2 kV=0.240178 Vminpu=0.95 Vmaxpu=1.05 model=1 kW=0.760008 kvar=0.370023806178 Phases=2

New Load.uclvl21160 conn=wye bus1=uclv21160.1.2 kV=0.240178 Vminpu=0.95 Vmaxpu=1.05 model=1 kW=1.66002 kvar=0.800219242954 Phases=2

New Load.uclvl20351 conn=wye bus1=uclv20351 kV=0.48 Vminpu=0.95 Vmaxpu=1.05 model=1 kW=42.3604 kvar=20.5160780898 Phases=3

New Load.uclvl45371 conn=wye bus1=uclv45371 kV=0.48 Vminpu=0.95 Vmaxpu=1.05 model=1 kW=121.161 kvar=58.6809505443 Phases=3

New Load.uclvl57810 conn=wye bus1=uclv57810.1.2 kV=0.240178 Vminpu=0.95 Vmaxpu=1.05 model=1 kW=8.13008 kvar=3.93987984568 Phases=2

New Load.uclvl20358 conn=wye bus1=uclv20358 kV=0.48 Vminpu=0.95 Vmaxpu=1.05 model=1 kW=45.1205 kvar=21.8528555313 Phases=3

New Load.uclvl39916 conn=wye bus1=uclv39916.1.2 kV=0.240178 Vminpu=0.95 Vmaxpu=1.05 model=1 kW=6.44006 kvar=3.12088719902 Phases=2

New Load.uclvl46234 conn=wye bus1=uclv46234.1.2 kV=0.240178 Vminpu=0.95 Vmaxpu=1.05 model=1 kW=16.3002 kvar=7.89916328752 Phases=2

New Load.uclvl7797 conn=wye bus1=uclv7797.1.2 kV=0.240178 Vminpu=0.95 Vmaxpu=1.05 model=1 kW=2.74003 kvar=1.33015976772 Phases=2

New Load.uclvl7796 conn=wye bus1=uclv7796.1.2 kV=0.240178 Vminpu=0.95 Vmaxpu=1.05 model=1 kW=2.74003 kvar=1.33015976772 Phases=2

New Load.uclvl7795 conn=wye bus1=uclv7795.1.2 kV=0.240178 Vminpu=0.95 Vmaxpu=1.05 model=1 kW=1.66002 kvar=0.800219242954 Phases=2

New Load.uclvl7794 conn=wye bus1=uclv7795.1.2 kV=0.240178 Vminpu=0.95 Vmaxpu=1.05 model=1 kW=1.66002 kvar=0.800219242954 Phases=2

New Load.uclvl7793 conn=wye bus1=uclv7793.1.2 kV=0.240178 Vminpu=0.95 Vmaxpu=1.05 model=1 kW=1.66002 kvar=0.800219242954 Phases=2

New Load.uclvl7792 conn=wye bus1=uclv7792.1.2 kV=0.240178 Vminpu=0.95 Vmaxpu=1.05 model=1 kW=2.74003 kvar=1.33015976772 Phases=2

New Load.uclvl7791 conn=wye bus1=uclv7791.1.2 kV=0.240178 Vminpu=0.95 Vmaxpu=1.05 model=1 kW=2.74003 kvar=1.33015976772 Phases=2

New Load.uclvl7790 conn=wye bus1=uclv7790.1.2 kV=0.240178 Vminpu=0.95 Vmaxpu=1.05 model=1 kW=1.66002 kvar=0.800219242954 Phases=2

New Load.uclvl28401 conn=wye bus1=uclv28401.1.2 kV=0.240178 Vminpu=0.95 Vmaxpu=1.05 model=1 kW=8.13008 kvar=3.93987984568 Phases=2

New Load.uclvl34176 conn=wye bus1=uclv34176 kV=0.48 Vminpu=0.95 Vmaxpu=1.05 model=1 kW=228.202 kvar=110.523272968 Phases=3

New Load.uclvl34170 conn=wye bus1=uclv34170 kV=0.48 Vminpu=0.95 Vmaxpu=1.05 model=1 kW=119.561 kvar=57.9060351765 Phases=3

New Load.uclvl9559 conn=wye bus1=uclv9559.1.2 kV=0.240178 Vminpu=0.95 Vmaxpu=1.05 model=1 kW=0.760008 kvar=0.370023806178 Phases=2

New Load.uclvl7798 conn=wye bus1=uclv7798.1.2 kV=0.240178 Vminpu=0.95 Vmaxpu=1.05 model=1 kW=1.66002 kvar=0.800219242954 Phases=2

New Load.uclvl40220 conn=wye bus1=uclv40220 kV=0.48 Vminpu=0.95 Vmaxpu=1.05 model=1 kW=40.7404 kvar=19.7314762799 Phases=3

New Load.uclvl8216 conn=wye bus1=uclv8216.1.2 kV=0.240178 Vminpu=0.95 Vmaxpu=1.05 model=1 kW=2.74003 kvar=1.33015976772 Phases=2

New Load.uclvl39765 conn=wye bus1=uclv39765 kV=0.48 Vminpu=0.95 Vmaxpu=1.05 model=1 kW=66.9207 kvar=32.4111742812 Phases=3

New Load.uclvl35903 conn=wye bus1=uclv35903 kV=0.48 Vminpu=0.95 Vmaxpu=1.05 model=1 kW=159.042 kvar=77.0275561976 Phases=3

New Load.uclvl12778 conn=wye bus1=uclv12778 kV=0.48 Vminpu=0.95 Vmaxpu=1.05 model=1 kW=128.431 kvar=62.2019722464 Phases=3

New Load.uclvl12779 conn=wye bus1=uclv12779 kV=0.48 Vminpu=0.95 Vmaxpu=1.05 model=1 kW=128.431 kvar=62.2019722464 Phases=3

New Load.uclvl36443 conn=wye bus1=uclv36443.1.2 kV=0.240178 Vminpu=0.95 Vmaxpu=1.05 model=1 kW=0.760008 kvar=0.370023806178 Phases=2

New Load.uclvl59572 conn=wye bus1=uclv59572.1.2 kV=0.240178 Vminpu=0.95 Vmaxpu=1.05 model=1 kW=2.74003 kvar=1.33015976772 Phases=2

New Load.uclvl50143 conn=wye bus1=uclv50143 kV=0.48 Vminpu=0.95 Vmaxpu=1.05 model=1 kW=171.602 kvar=83.1106418344 Phases=3

New Load.uclvl47495 conn=wye bus1=uclv47495 kV=0.48 Vminpu=0.95 Vmaxpu=1.05 model=1 kW=45.2905 kvar=21.9351902892 Phases=3

New Load.uclvl18838 conn=wye bus1=uclv18838 kV=0.48 Vminpu=0.95 Vmaxpu=1.05 model=1 kW=115.081 kvar=55.7362721468 Phases=3

New Load.uclvl12776 conn=wye bus1=uclv12776.1.2 kV=0.240178 Vminpu=0.95 Vmaxpu=1.05 model=1 kW=0.880009 kvar=0.429939507065 Phases=2

New Load.uclvl12777 conn=wye bus1=uclv12777 kV=0.48 Vminpu=0.95 Vmaxpu=1.05 model=1 kW=28.5803 kvar=13.8420710529 Phases=3

New Load.uclvl12775 conn=wye bus1=uclv12775.1.2 kV=0.240178 Vminpu=0.95 Vmaxpu=1.05 model=1 kW=0.130001 kvar=0.0599851768177 Phases=2

New Load.uclvl38146 conn=wye bus1=uclv38146 kV=0.48 Vminpu=0.95 Vmaxpu=1.05 model=1 kW=27.8803 kvar=13.5030455795 Phases=3

New Load.uclvl12578 conn=wye bus1=uclv12578 kV=0.48 Vminpu=0.95 Vmaxpu=1.05 model=1 kW=28.5803 kvar=13.8420710529 Phases=3

New Load.uclvl12579 conn=wye bus1=uclv12579 kV=0.48 Vminpu=0.95 Vmaxpu=1.05 model=1 kW=24.6802 kvar=11.9531664118 Phases=3

New Load.uclvl12574 conn=wye bus1=uclv12574 kV=0.48 Vminpu=0.95 Vmaxpu=1.05 model=1 kW=28.5803 kvar=13.8420710529 Phases=3

New Load.uclvl12575 conn=wye bus1=uclv12575 kV=0.48 Vminpu=0.95 Vmaxpu=1.05 model=1 kW=24.7602 kvar=11.9919121802 Phases=3

New Load.uclvl12576 conn=wye bus1=uclv12576 kV=0.48 Vminpu=0.95 Vmaxpu=1.05 model=1 kW=28.5803 kvar=13.8420710529 Phases=3

New Load.uclvl12577 conn=wye bus1=uclv12577 kV=0.48 Vminpu=0.95 Vmaxpu=1.05 model=1 kW=28.5803 kvar=13.8420710529 Phases=3

New Load.uclvl12570 conn=wye bus1=uclv12570 kV=0.48 Vminpu=0.95 Vmaxpu=1.05 model=1 kW=63.4406 kvar=30.7256849242 Phases=3

New Load.uclvl12571 conn=wye bus1=uclv12571 kV=0.48 Vminpu=0.95 Vmaxpu=1.05 model=1 kW=28.5803 kvar=13.8420710529 Phases=3

New Load.uclvl12572 conn=wye bus1=uclv12572.1.2 kV=0.240178 Vminpu=0.95 Vmaxpu=1.05 model=1 kW=7.45007 kvar=3.61034339661 Phases=2

New Load.uclvl12573 conn=wye bus1=uclv12573 kV=0.48 Vminpu=0.95 Vmaxpu=1.05 model=1 kW=28.5803 kvar=13.8420710529 Phases=3

New Load.uclvl57055 conn=wye bus1=uclv57055.1.2 kV=0.240178 Vminpu=0.95 Vmaxpu=1.05 model=1 kW=8.13008 kvar=3.93987984568 Phases=2

New Load.uclvl36711 conn=wye bus1=uclv36711.1.2 kV=0.240178 Vminpu=0.95 Vmaxpu=1.05 model=1 kW=1.66002 kvar=0.800219242954 Phases=2

New Load.uclvl59401 conn=wye bus1=uclv59401.1.2 kV=0.240178 Vminpu=0.95 Vmaxpu=1.05 model=1 kW=0.420004 kvar=0.199954587053 Phases=2

New Load.uclvl26351 conn=wye bus1=uclv26351.1.2 kV=0.240178 Vminpu=0.95 Vmaxpu=1.05 model=1 kW=1.66002 kvar=0.800219242954 Phases=2

New Load.uclvl27735 conn=wye bus1=uclv27735.1.2 kV=0.240178 Vminpu=0.95 Vmaxpu=1.05 model=1 kW=2.74003 kvar=1.33015976772 Phases=2

New Load.uclvl33876 conn=wye bus1=uclv33876 kV=0.48 Vminpu=0.95 Vmaxpu=1.05 model=1 kW=55.2006 kvar=26.7348707803 Phases=3

New Load.uclvl7807 conn=wye bus1=uclv7807.1.2 kV=0.240178 Vminpu=0.95 Vmaxpu=1.05 model=1 kW=2.74003 kvar=1.33015976772 Phases=2

New Load.uclvl7806 conn=wye bus1=uclv7806.1.2 kV=0.240178 Vminpu=0.95 Vmaxpu=1.05 model=1 kW=2.74003 kvar=1.33015976772 Phases=2

New Load.uclvl7805 conn=wye bus1=uclv7805.1.2 kV=0.240178 Vminpu=0.95 Vmaxpu=1.05 model=1 kW=1.66002 kvar=0.800219242954 Phases=2

New Load.uclvl7804 conn=wye bus1=uclv7805.1.2 kV=0.240178 Vminpu=0.95 Vmaxpu=1.05 model=1 kW=1.66002 kvar=0.800219242954 Phases=2

New Load.uclvl7803 conn=wye bus1=uclv7803.1.2 kV=0.240178 Vminpu=0.95 Vmaxpu=1.05 model=1 kW=1.66002 kvar=0.800219242954 Phases=2

New Load.uclvl7802 conn=wye bus1=uclv7803.1.2 kV=0.240178 Vminpu=0.95 Vmaxpu=1.05 model=1 kW=1.66002 kvar=0.800219242954 Phases=2

New Load.uclvl7801 conn=wye bus1=uclv7801.1.2 kV=0.240178 Vminpu=0.95 Vmaxpu=1.05 model=1 kW=2.74003 kvar=1.33015976772 Phases=2

New Load.uclvl7800 conn=wye bus1=uclv7800.1.2 kV=0.240178 Vminpu=0.95 Vmaxpu=1.05 model=1 kW=2.74003 kvar=1.33015976772 Phases=2

New Load.uclvl28908 conn=wye bus1=uclv28908.1.2 kV=0.240178 Vminpu=0.95 Vmaxpu=1.05 model=1 kW=0.430004 kvar=0.209962529876 Phases=2

New Load.uclvl23025 conn=wye bus1=uclv23025 kV=0.48 Vminpu=0.95 Vmaxpu=1.05 model=1 kW=69.5207 kvar=33.6704117538 Phases=3

New Load.uclvl7809 conn=wye bus1=uclv7809.1.2 kV=0.240178 Vminpu=0.95 Vmaxpu=1.05 model=1 kW=2.74003 kvar=1.33015976772 Phases=2

New Load.uclvl7808 conn=wye bus1=uclv7808.1.2 kV=0.240178 Vminpu=0.95 Vmaxpu=1.05 model=1 kW=1.66002 kvar=0.800219242954 Phases=2

New Load.uclvl45562 conn=wye bus1=uclv45562.1.2 kV=0.240178 Vminpu=0.95 Vmaxpu=1.05 model=1 kW=1.66002 kvar=0.800219242954 Phases=2

New Load.uclvl42956 conn=wye bus1=uclv42956.1.2 kV=0.240178 Vminpu=0.95 Vmaxpu=1.05 model=1 kW=0.900009 kvar=0.439964692768 Phases=2

New Load.uclvl52800 conn=wye bus1=uclv52800 kV=0.48 Vminpu=0.95 Vmaxpu=1.05 model=1 kW=119.561 kvar=57.9060351765 Phases=3

New Load.uclvl53192 conn=wye bus1=uclv53192.1.2 kV=0.240178 Vminpu=0.95 Vmaxpu=1.05 model=1 kW=0.760008 kvar=0.370023806178 Phases=2

New Load.uclvl28376 conn=wye bus1=uclv28376 kV=0.48 Vminpu=0.95 Vmaxpu=1.05 model=1 kW=186.712 kvar=90.4287488385 Phases=3

New Load.uclvl39236 conn=wye bus1=uclv39236 kV=0.48 Vminpu=0.95 Vmaxpu=1.05 model=1 kW=24.4002 kvar=11.8175562225 Phases=3

New Load.uclvl51585 conn=wye bus1=uclv51585.1.2 kV=0.240178 Vminpu=0.95 Vmaxpu=1.05 model=1 kW=1.66002 kvar=0.800219242954 Phases=2

New Load.uclvl61808 conn=wye bus1=uclv61808.1.2 kV=0.240178 Vminpu=0.95 Vmaxpu=1.05 model=1 kW=8.13008 kvar=3.93987984568 Phases=2

New Load.uclvl14245 conn=wye bus1=uclv14245 kV=0.48 Vminpu=0.95 Vmaxpu=1.05 model=1 kW=119.561 kvar=57.9060351765 Phases=3

New Load.uclvl49849 conn=wye bus1=uclv49849 kV=0.48 Vminpu=0.95 Vmaxpu=1.05 model=1 kW=157.042 kvar=76.0589119879 Phases=3

New Load.uclvl31932 conn=wye bus1=uclv31932.1.2 kV=0.240178 Vminpu=0.95 Vmaxpu=1.05 model=1 kW=0.760008 kvar=0.370023806178 Phases=2

New Load.uclvl5799 conn=wye bus1=uclv5799.1.2 kV=0.240178 Vminpu=0.95 Vmaxpu=1.05 model=1 kW=14.2801 kvar=6.92021212391 Phases=2

New Load.uclvl5798 conn=wye bus1=uclv5798 kV=0.48 Vminpu=0.95 Vmaxpu=1.05 model=1 kW=20.6402 kvar=10.0023502833 Phases=3

New Load.uclvl32979 conn=wye bus1=uclv32979.1.2 kV=0.240178 Vminpu=0.95 Vmaxpu=1.05 model=1 kW=0.760008 kvar=0.370023806178 Phases=2

New Load.uclvl43226 conn=wye bus1=uclv43226.1.2 kV=0.240178 Vminpu=0.95 Vmaxpu=1.05 model=1 kW=1.66002 kvar=0.800219242954 Phases=2

New Load.uclvl36815 conn=wye bus1=uclv36815 kV=0.48 Vminpu=0.95 Vmaxpu=1.05 model=1 kW=119.561 kvar=57.9060351765 Phases=3

New Load.uclvl23111 conn=wye bus1=uclv23111 kV=0.48 Vminpu=0.95 Vmaxpu=1.05 model=1 kW=117.801 kvar=57.053628272 Phases=3

New Load.uclvl9979 conn=wye bus1=uclv9979 kV=0.48 Vminpu=0.95 Vmaxpu=1.05 model=1 kW=96.761 kvar=46.8634911862 Phases=3

New Load.uclvl9978 conn=wye bus1=uclv9978 kV=0.48 Vminpu=0.95 Vmaxpu=1.05 model=1 kW=128.431 kvar=62.2019722464 Phases=3

New Load.uclvl26193 conn=wye bus1=uclv26193.1.2 kV=0.240178 Vminpu=0.95 Vmaxpu=1.05 model=1 kW=2.74003 kvar=1.33015976772 Phases=2

New Load.uclvl9971 conn=wye bus1=uclv9971 kV=0.48 Vminpu=0.95 Vmaxpu=1.05 model=1 kW=28.5803 kvar=13.8420710529 Phases=3

New Load.uclvl9970 conn=wye bus1=uclv9970 kV=0.48 Vminpu=0.95 Vmaxpu=1.05 model=1 kW=28.5803 kvar=13.8420710529 Phases=3

New Load.uclvl9973 conn=wye bus1=uclv9973 kV=0.48 Vminpu=0.95 Vmaxpu=1.05 model=1 kW=28.5803 kvar=13.8420710529 Phases=3

New Load.uclvl9972 conn=wye bus1=uclv9972 kV=0.48 Vminpu=0.95 Vmaxpu=1.05 model=1 kW=28.5803 kvar=13.8420710529 Phases=3

New Load.uclvl9975 conn=wye bus1=uclv9975 kV=0.48 Vminpu=0.95 Vmaxpu=1.05 model=1 kW=28.5803 kvar=13.8420710529 Phases=3

New Load.uclvl9974 conn=wye bus1=uclv9974 kV=0.48 Vminpu=0.95 Vmaxpu=1.05 model=1 kW=28.5803 kvar=13.8420710529 Phases=3
