New Transformer.ctrafo(cramaee():s_ncctt1570->s_ncctt1570_bt) phases=1 windings=3 %loadloss=0.798816 %Noloadloss=0.472 normhkva=27.5 wdg=1 conn=wye bus=s_ncctt1570.2 Kv=7.19956 kva=25.0 EmergHKVA=37.5 %r=0.266272 wdg=2 conn=wye bus=s_ncctt1570_bt.1.0 Kv=0.120089 kva=25.0 EmergHKVA=37.5 %r=0.532544 wdg=3 conn=wye bus=s_ncctt1570_bt.0.2 Kv=0.120089 kva=25.0 EmergHKVA=37.5 %r=0.532544 XHL=2.4 XLT=2.4 XHT=1.6

New Transformer.ctrafo(cramaee():s_ncctt258->s_ncctt258_bt) phases=1 windings=3 %loadloss=0.798816 %Noloadloss=0.472 normhkva=27.5 wdg=1 conn=wye bus=s_ncctt258.3 Kv=7.19956 kva=25.0 EmergHKVA=37.5 %r=0.266272 wdg=2 conn=wye bus=s_ncctt258_bt.1.0 Kv=0.120089 kva=25.0 EmergHKVA=37.5 %r=0.532544 wdg=3 conn=wye bus=s_ncctt258_bt.0.2 Kv=0.120089 kva=25.0 EmergHKVA=37.5 %r=0.532544 XHL=2.4 XLT=2.4 XHT=1.6

New Transformer.ctrafo(cramaee():s_ncctt1087->s_ncctt1087_bt) phases=1 windings=3 %loadloss=0.798816 %Noloadloss=0.472 normhkva=27.5 wdg=1 conn=wye bus=s_ncctt1087.3 Kv=7.19956 kva=25.0 EmergHKVA=37.5 %r=0.266272 wdg=2 conn=wye bus=s_ncctt1087_bt.1.0 Kv=0.120089 kva=25.0 EmergHKVA=37.5 %r=0.532544 wdg=3 conn=wye bus=s_ncctt1087_bt.0.2 Kv=0.120089 kva=25.0 EmergHKVA=37.5 %r=0.532544 XHL=2.4 XLT=2.4 XHT=1.6

New Transformer.ctrafo(cramaee():s_ncctt1597->s_ncctt1597_bt) phases=1 windings=3 %loadloss=0.798816 %Noloadloss=0.37 normhkva=55.0 wdg=1 conn=wye bus=s_ncctt1597.1 Kv=7.19956 kva=50.0 EmergHKVA=75.0 %r=0.266272 wdg=2 conn=wye bus=s_ncctt1597_bt.1.0 Kv=0.120089 kva=50.0 EmergHKVA=75.0 %r=0.532544 wdg=3 conn=wye bus=s_ncctt1597_bt.0.2 Kv=0.120089 kva=50.0 EmergHKVA=75.0 %r=0.532544 XHL=2.4 XLT=2.4 XHT=1.6

New Transformer.ctrafo(cramaee():s_ncctt306->s_ncctt306_bt) phases=1 windings=3 %loadloss=0.798816 %Noloadloss=0.472 normhkva=27.5 wdg=1 conn=wye bus=s_ncctt306.1 Kv=7.19956 kva=25.0 EmergHKVA=37.5 %r=0.266272 wdg=2 conn=wye bus=s_ncctt306_bt.1.0 Kv=0.120089 kva=25.0 EmergHKVA=37.5 %r=0.532544 wdg=3 conn=wye bus=s_ncctt306_bt.0.2 Kv=0.120089 kva=25.0 EmergHKVA=37.5 %r=0.532544 XHL=2.4 XLT=2.4 XHT=1.6

New Transformer.ctrafo(cramaee():s_ncctt698->s_ncctt698_bt) phases=3 windings=2 %loadloss=2.1568 %Noloadloss=0.516667 normhkva=165.0 wdg=1 conn=wye Kv=12.47 kva=150.0 EmergHKVA=225.0 %R=1.0784 bus=s_ncctt698 wdg=2 conn=wye Kv=0.48 kva=150.0 EmergHKVA=225.0 %R=1.0784 bus=s_ncctt698_bt XHL=3.39

New Transformer.ctrafo(cramaee():s_ncctt1137->s_ncctt1137_bt) phases=1 windings=3 %loadloss=0.798816 %Noloadloss=0.472 normhkva=27.5 wdg=1 conn=wye bus=s_ncctt1137.3 Kv=7.19956 kva=25.0 EmergHKVA=37.5 %r=0.266272 wdg=2 conn=wye bus=s_ncctt1137_bt.1.0 Kv=0.120089 kva=25.0 EmergHKVA=37.5 %r=0.532544 wdg=3 conn=wye bus=s_ncctt1137_bt.0.2 Kv=0.120089 kva=25.0 EmergHKVA=37.5 %r=0.532544 XHL=2.4 XLT=2.4 XHT=1.6

New Transformer.ctrafo(cramaee():s_ncctt1455->s_ncctt1455_bt) phases=1 windings=3 %loadloss=0.798816 %Noloadloss=0.472 normhkva=27.5 wdg=1 conn=wye bus=s_ncctt1455.3 Kv=7.19956 kva=25.0 EmergHKVA=37.5 %r=0.266272 wdg=2 conn=wye bus=s_ncctt1455_bt.1.0 Kv=0.120089 kva=25.0 EmergHKVA=37.5 %r=0.532544 wdg=3 conn=wye bus=s_ncctt1455_bt.0.2 Kv=0.120089 kva=25.0 EmergHKVA=37.5 %r=0.532544 XHL=2.4 XLT=2.4 XHT=1.6

New Transformer.ctrafo(cramaee():s_ncctt510->s_ncctt510_bt) phases=3 windings=2 %loadloss=1.61095 %Noloadloss=0.62 normhkva=110.0 wdg=1 conn=wye Kv=12.47 kva=100.0 EmergHKVA=150.0 %R=0.805475 bus=s_ncctt510 wdg=2 conn=wye Kv=0.48 kva=100.0 EmergHKVA=150.0 %R=0.805475 bus=s_ncctt510_bt XHL=3.29

New Transformer.ctrafo(cramaee():s_ncctt1462->s_ncctt1462_bt) phases=1 windings=3 %loadloss=0.798816 %Noloadloss=0.472 normhkva=27.5 wdg=1 conn=wye bus=s_ncctt1462.2 Kv=7.19956 kva=25.0 EmergHKVA=37.5 %r=0.266272 wdg=2 conn=wye bus=s_ncctt1462_bt.1.0 Kv=0.120089 kva=25.0 EmergHKVA=37.5 %r=0.532544 wdg=3 conn=wye bus=s_ncctt1462_bt.0.2 Kv=0.120089 kva=25.0 EmergHKVA=37.5 %r=0.532544 XHL=2.4 XLT=2.4 XHT=1.6

New Transformer.ctrafo(cramaee():s_ncctt1035->s_ncctt1035_bt) phases=3 windings=2 %loadloss=1.74408 %Noloadloss=0.6 normhkva=82.5 wdg=1 conn=wye Kv=12.47 kva=75.0 EmergHKVA=112.5 %R=0.87204 bus=s_ncctt1035 wdg=2 conn=wye Kv=0.48 kva=75.0 EmergHKVA=112.5 %R=0.87204 bus=s_ncctt1035_bt XHL=3.24

New Transformer.ctrafo(cramaee():s_ncctt950->s_ncctt950_bt) phases=3 windings=2 %loadloss=1.61095 %Noloadloss=0.62 normhkva=110.0 wdg=1 conn=wye Kv=12.47 kva=100.0 EmergHKVA=150.0 %R=0.805475 bus=s_ncctt950 wdg=2 conn=wye Kv=0.48 kva=100.0 EmergHKVA=150.0 %R=0.805475 bus=s_ncctt950_bt XHL=3.29

New Transformer.ctrafo(cramaee():s_ncctt63->s_ncctt63_bt) phases=1 windings=3 %loadloss=0.798816 %Noloadloss=0.37 normhkva=55.0 wdg=1 conn=wye bus=s_ncctt63.2 Kv=7.19956 kva=50.0 EmergHKVA=75.0 %r=0.266272 wdg=2 conn=wye bus=s_ncctt63_bt.1.0 Kv=0.120089 kva=50.0 EmergHKVA=75.0 %r=0.532544 wdg=3 conn=wye bus=s_ncctt63_bt.0.2 Kv=0.120089 kva=50.0 EmergHKVA=75.0 %r=0.532544 XHL=2.4 XLT=2.4 XHT=1.6

New Transformer.ctrafo(cramaee():s_ncctt1295->s_ncctt1295_bt) phases=3 windings=2 %loadloss=1.74408 %Noloadloss=0.6 normhkva=82.5 wdg=1 conn=wye Kv=12.47 kva=75.0 EmergHKVA=112.5 %R=0.87204 bus=s_ncctt1295 wdg=2 conn=wye Kv=0.48 kva=75.0 EmergHKVA=112.5 %R=0.87204 bus=s_ncctt1295_bt XHL=3.24

New Transformer.ctrafo(cramaee():s_ncctt674->s_ncctt674_bt) phases=3 windings=2 %loadloss=1.74408 %Noloadloss=0.6 normhkva=82.5 wdg=1 conn=wye Kv=12.47 kva=75.0 EmergHKVA=112.5 %R=0.87204 bus=s_ncctt674 wdg=2 conn=wye Kv=0.48 kva=75.0 EmergHKVA=112.5 %R=0.87204 bus=s_ncctt674_bt XHL=3.24

New Transformer.ctrafo(cramaee():s_ncctt783->s_ncctt783_bt) phases=3 windings=2 %loadloss=2.1568 %Noloadloss=0.516667 normhkva=165.0 wdg=1 conn=wye Kv=12.47 kva=150.0 EmergHKVA=225.0 %R=1.0784 bus=s_ncctt783 wdg=2 conn=wye Kv=0.48 kva=150.0 EmergHKVA=225.0 %R=1.0784 bus=s_ncctt783_bt XHL=3.39

New Transformer.ctrafo(cramaee():s_ncctt126->s_ncctt126_bt) phases=1 windings=3 %loadloss=0.798816 %Noloadloss=0.37 normhkva=55.0 wdg=1 conn=wye bus=s_ncctt126.3 Kv=7.19956 kva=50.0 EmergHKVA=75.0 %r=0.266272 wdg=2 conn=wye bus=s_ncctt126_bt.1.0 Kv=0.120089 kva=50.0 EmergHKVA=75.0 %r=0.532544 wdg=3 conn=wye bus=s_ncctt126_bt.0.2 Kv=0.120089 kva=50.0 EmergHKVA=75.0 %r=0.532544 XHL=2.4 XLT=2.4 XHT=1.6

New Transformer.ctrafo(cramaee():s_ncctt582->s_ncctt582_bt) phases=3 windings=2 %loadloss=1.4645 %Noloadloss=0.266 normhkva=550.0 wdg=1 conn=wye Kv=12.47 kva=500.0 EmergHKVA=750.0 %R=0.73225 bus=s_ncctt582 wdg=2 conn=wye Kv=0.48 kva=500.0 EmergHKVA=750.0 %R=0.73225 bus=s_ncctt582_bt XHL=4.36

New Transformer.ctrafo(cramaee():s_ncctt1095->s_ncctt1095_bt) phases=3 windings=2 %loadloss=1.4645 %Noloadloss=0.266 normhkva=550.0 wdg=1 conn=wye Kv=12.47 kva=500.0 EmergHKVA=750.0 %R=0.73225 bus=s_ncctt1095 wdg=2 conn=wye Kv=0.48 kva=500.0 EmergHKVA=750.0 %R=0.73225 bus=s_ncctt1095_bt XHL=4.36

New Transformer.ctrafo(cramaee():s_ncctt120->s_ncctt120_bt) phases=1 windings=3 %loadloss=0.798816 %Noloadloss=0.472 normhkva=27.5 wdg=1 conn=wye bus=s_ncctt120.2 Kv=7.19956 kva=25.0 EmergHKVA=37.5 %r=0.266272 wdg=2 conn=wye bus=s_ncctt120_bt.1.0 Kv=0.120089 kva=25.0 EmergHKVA=37.5 %r=0.532544 wdg=3 conn=wye bus=s_ncctt120_bt.0.2 Kv=0.120089 kva=25.0 EmergHKVA=37.5 %r=0.532544 XHL=2.4 XLT=2.4 XHT=1.6

New Transformer.ctrafo(cramaee():s_ncctt1302->s_ncctt1302_bt) phases=1 windings=3 %loadloss=0.798816 %Noloadloss=0.37 normhkva=55.0 wdg=1 conn=wye bus=s_ncctt1302.3 Kv=7.19956 kva=50.0 EmergHKVA=75.0 %r=0.266272 wdg=2 conn=wye bus=s_ncctt1302_bt.1.0 Kv=0.120089 kva=50.0 EmergHKVA=75.0 %r=0.532544 wdg=3 conn=wye bus=s_ncctt1302_bt.0.2 Kv=0.120089 kva=50.0 EmergHKVA=75.0 %r=0.532544 XHL=2.4 XLT=2.4 XHT=1.6

New Transformer.ctrafo(cramaee():s_ncctt1573->s_ncctt1573_bt) phases=3 windings=2 %loadloss=1.74408 %Noloadloss=0.6 normhkva=82.5 wdg=1 conn=wye Kv=12.47 kva=75.0 EmergHKVA=112.5 %R=0.87204 bus=s_ncctt1573 wdg=2 conn=wye Kv=0.48 kva=75.0 EmergHKVA=112.5 %R=0.87204 bus=s_ncctt1573_bt XHL=3.24

New Transformer.ctrafo(cramaee():s_ncctt856->s_ncctt856_bt) phases=3 windings=2 %loadloss=1.4645 %Noloadloss=0.266 normhkva=550.0 wdg=1 conn=wye Kv=12.47 kva=500.0 EmergHKVA=750.0 %R=0.73225 bus=s_ncctt856 wdg=2 conn=wye Kv=0.48 kva=500.0 EmergHKVA=750.0 %R=0.73225 bus=s_ncctt856_bt XHL=4.36

New Transformer.ctrafo(cramaee():s_ncctt1494->s_ncctt1494_bt) phases=1 windings=3 %loadloss=0.798816 %Noloadloss=0.472 normhkva=27.5 wdg=1 conn=wye bus=s_ncctt1494.2 Kv=7.19956 kva=25.0 EmergHKVA=37.5 %r=0.266272 wdg=2 conn=wye bus=s_ncctt1494_bt.1.0 Kv=0.120089 kva=25.0 EmergHKVA=37.5 %r=0.532544 wdg=3 conn=wye bus=s_ncctt1494_bt.0.2 Kv=0.120089 kva=25.0 EmergHKVA=37.5 %r=0.532544 XHL=2.4 XLT=2.4 XHT=1.6

New Transformer.ctrafo(cramaee():s_ncctt380->s_ncctt380_bt) phases=3 windings=2 %loadloss=1.74408 %Noloadloss=0.6 normhkva=82.5 wdg=1 conn=wye Kv=12.47 kva=75.0 EmergHKVA=112.5 %R=0.87204 bus=s_ncctt380 wdg=2 conn=wye Kv=0.48 kva=75.0 EmergHKVA=112.5 %R=0.87204 bus=s_ncctt380_bt XHL=3.24

New Transformer.ctrafo(cramaee():s_ncctt1417->s_ncctt1417_bt) phases=3 windings=2 %loadloss=1.61095 %Noloadloss=0.62 normhkva=110.0 wdg=1 conn=wye Kv=12.47 kva=100.0 EmergHKVA=150.0 %R=0.805475 bus=s_ncctt1417 wdg=2 conn=wye Kv=0.48 kva=100.0 EmergHKVA=150.0 %R=0.805475 bus=s_ncctt1417_bt XHL=3.29

New Transformer.ctrafo(cramaee():s_ncctt1159->s_ncctt1159_bt) phases=3 windings=2 %loadloss=1.4645 %Noloadloss=0.266 normhkva=550.0 wdg=1 conn=wye Kv=12.47 kva=500.0 EmergHKVA=750.0 %R=0.73225 bus=s_ncctt1159 wdg=2 conn=wye Kv=0.48 kva=500.0 EmergHKVA=750.0 %R=0.73225 bus=s_ncctt1159_bt XHL=4.36

New Transformer.ctrafo(cramaee():s_ncctt1089->s_ncctt1089_bt) phases=1 windings=3 %loadloss=0.798816 %Noloadloss=0.472 normhkva=27.5 wdg=1 conn=wye bus=s_ncctt1089.1 Kv=7.19956 kva=25.0 EmergHKVA=37.5 %r=0.266272 wdg=2 conn=wye bus=s_ncctt1089_bt.1.0 Kv=0.120089 kva=25.0 EmergHKVA=37.5 %r=0.532544 wdg=3 conn=wye bus=s_ncctt1089_bt.0.2 Kv=0.120089 kva=25.0 EmergHKVA=37.5 %r=0.532544 XHL=2.4 XLT=2.4 XHT=1.6

New Transformer.ctrafo(cramaee():s_ncctt13->s_ncctt13_bt) phases=3 windings=2 %loadloss=1.74408 %Noloadloss=0.6 normhkva=82.5 wdg=1 conn=wye Kv=12.47 kva=75.0 EmergHKVA=112.5 %R=0.87204 bus=s_ncctt13 wdg=2 conn=wye Kv=0.48 kva=75.0 EmergHKVA=112.5 %R=0.87204 bus=s_ncctt13_bt XHL=3.24

New Transformer.ctrafo(cramaee():s_ncctt947->s_ncctt947_bt) phases=3 windings=2 %loadloss=1.74408 %Noloadloss=0.6 normhkva=82.5 wdg=1 conn=wye Kv=12.47 kva=75.0 EmergHKVA=112.5 %R=0.87204 bus=s_ncctt947 wdg=2 conn=wye Kv=0.48 kva=75.0 EmergHKVA=112.5 %R=0.87204 bus=s_ncctt947_bt XHL=3.24

New Transformer.ctrafo(cramaee():s_ncctt1427->s_ncctt1427_bt) phases=1 windings=3 %loadloss=0.798816 %Noloadloss=0.472 normhkva=27.5 wdg=1 conn=wye bus=s_ncctt1427.2 Kv=7.19956 kva=25.0 EmergHKVA=37.5 %r=0.266272 wdg=2 conn=wye bus=s_ncctt1427_bt.1.0 Kv=0.120089 kva=25.0 EmergHKVA=37.5 %r=0.532544 wdg=3 conn=wye bus=s_ncctt1427_bt.0.2 Kv=0.120089 kva=25.0 EmergHKVA=37.5 %r=0.532544 XHL=2.4 XLT=2.4 XHT=1.6

New Transformer.ctrafo(cramaee():s_ncctt1048->s_ncctt1048_bt) phases=3 windings=2 %loadloss=1.74408 %Noloadloss=0.6 normhkva=82.5 wdg=1 conn=wye Kv=12.47 kva=75.0 EmergHKVA=112.5 %R=0.87204 bus=s_ncctt1048 wdg=2 conn=wye Kv=0.48 kva=75.0 EmergHKVA=112.5 %R=0.87204 bus=s_ncctt1048_bt XHL=3.24

New Transformer.ctrafo(cramaee():s_ncctt713->s_ncctt713_bt) phases=3 windings=2 %loadloss=2.1568 %Noloadloss=0.516667 normhkva=165.0 wdg=1 conn=wye Kv=12.47 kva=150.0 EmergHKVA=225.0 %R=1.0784 bus=s_ncctt713 wdg=2 conn=wye Kv=0.48 kva=150.0 EmergHKVA=225.0 %R=1.0784 bus=s_ncctt713_bt XHL=3.39

New Transformer.ctrafo(cramaee():s_ncctt313->s_ncctt313_bt) phases=1 windings=3 %loadloss=0.798816 %Noloadloss=0.472 normhkva=27.5 wdg=1 conn=wye bus=s_ncctt313.1 Kv=7.19956 kva=25.0 EmergHKVA=37.5 %r=0.266272 wdg=2 conn=wye bus=s_ncctt313_bt.1.0 Kv=0.120089 kva=25.0 EmergHKVA=37.5 %r=0.532544 wdg=3 conn=wye bus=s_ncctt313_bt.0.2 Kv=0.120089 kva=25.0 EmergHKVA=37.5 %r=0.532544 XHL=2.4 XLT=2.4 XHT=1.6

New Transformer.ctrafo(cramaee():s_ncctt1181->s_ncctt1181_bt) phases=1 windings=3 %loadloss=0.798816 %Noloadloss=0.37 normhkva=55.0 wdg=1 conn=wye bus=s_ncctt1181.3 Kv=7.19956 kva=50.0 EmergHKVA=75.0 %r=0.266272 wdg=2 conn=wye bus=s_ncctt1181_bt.1.0 Kv=0.120089 kva=50.0 EmergHKVA=75.0 %r=0.532544 wdg=3 conn=wye bus=s_ncctt1181_bt.0.2 Kv=0.120089 kva=50.0 EmergHKVA=75.0 %r=0.532544 XHL=2.4 XLT=2.4 XHT=1.6

New Transformer.ctrafo(cramaee():s_ncctt228->s_ncctt228_bt) phases=3 windings=2 %loadloss=1.61095 %Noloadloss=0.62 normhkva=110.0 wdg=1 conn=wye Kv=12.47 kva=100.0 EmergHKVA=150.0 %R=0.805475 bus=s_ncctt228 wdg=2 conn=wye Kv=0.48 kva=100.0 EmergHKVA=150.0 %R=0.805475 bus=s_ncctt228_bt XHL=3.29

New Transformer.ctrafo(cramaee():s_ncctt1479->s_ncctt1479_bt) phases=3 windings=2 %loadloss=1.74408 %Noloadloss=0.6 normhkva=82.5 wdg=1 conn=wye Kv=12.47 kva=75.0 EmergHKVA=112.5 %R=0.87204 bus=s_ncctt1479 wdg=2 conn=wye Kv=0.48 kva=75.0 EmergHKVA=112.5 %R=0.87204 bus=s_ncctt1479_bt XHL=3.24

New Transformer.ctrafo(cramaee():s_ncctt496->s_ncctt496_bt) phases=3 windings=2 %loadloss=1.82396 %Noloadloss=0.325 normhkva=330.0 wdg=1 conn=wye Kv=12.47 kva=300.0 EmergHKVA=450.0 %R=0.91198 bus=s_ncctt496 wdg=2 conn=wye Kv=0.48 kva=300.0 EmergHKVA=450.0 %R=0.91198 bus=s_ncctt496_bt XHL=3.76

New Transformer.ctrafo(cramaee():s_ncctt1306->s_ncctt1306_bt) phases=1 windings=3 %loadloss=0.798816 %Noloadloss=0.37 normhkva=55.0 wdg=1 conn=wye bus=s_ncctt1306.2 Kv=7.19956 kva=50.0 EmergHKVA=75.0 %r=0.266272 wdg=2 conn=wye bus=s_ncctt1306_bt.1.0 Kv=0.120089 kva=50.0 EmergHKVA=75.0 %r=0.532544 wdg=3 conn=wye bus=s_ncctt1306_bt.0.2 Kv=0.120089 kva=50.0 EmergHKVA=75.0 %r=0.532544 XHL=2.4 XLT=2.4 XHT=1.6

New Transformer.ctrafo(cramaee():s_ncctt1082->s_ncctt1082_bt) phases=3 windings=2 %loadloss=1.74408 %Noloadloss=0.6 normhkva=82.5 wdg=1 conn=wye Kv=12.47 kva=75.0 EmergHKVA=112.5 %R=0.87204 bus=s_ncctt1082 wdg=2 conn=wye Kv=0.48 kva=75.0 EmergHKVA=112.5 %R=0.87204 bus=s_ncctt1082_bt XHL=3.24

New Transformer.ctrafo(cramaee():s_ncctt600->s_ncctt600_bt) phases=1 windings=3 %loadloss=0.798816 %Noloadloss=0.472 normhkva=27.5 wdg=1 conn=wye bus=s_ncctt600.3 Kv=7.19956 kva=25.0 EmergHKVA=37.5 %r=0.266272 wdg=2 conn=wye bus=s_ncctt600_bt.1.0 Kv=0.120089 kva=25.0 EmergHKVA=37.5 %r=0.532544 wdg=3 conn=wye bus=s_ncctt600_bt.0.2 Kv=0.120089 kva=25.0 EmergHKVA=37.5 %r=0.532544 XHL=2.4 XLT=2.4 XHT=1.6

New Transformer.ctrafo(cramaee():s_ncctt764->s_ncctt764_bt) phases=3 windings=2 %loadloss=1.74408 %Noloadloss=0.6 normhkva=82.5 wdg=1 conn=wye Kv=12.47 kva=75.0 EmergHKVA=112.5 %R=0.87204 bus=s_ncctt764 wdg=2 conn=wye Kv=0.48 kva=75.0 EmergHKVA=112.5 %R=0.87204 bus=s_ncctt764_bt XHL=3.24

New Transformer.ctrafo(cramaee():s_ncctt302->s_ncctt302_bt) phases=3 windings=2 %loadloss=1.82396 %Noloadloss=0.325 normhkva=330.0 wdg=1 conn=wye Kv=12.47 kva=300.0 EmergHKVA=450.0 %R=0.91198 bus=s_ncctt302 wdg=2 conn=wye Kv=0.48 kva=300.0 EmergHKVA=450.0 %R=0.91198 bus=s_ncctt302_bt XHL=3.76

New Transformer.ctrafo(cramaee():s_ncctt552->s_ncctt552_bt) phases=1 windings=3 %loadloss=0.798816 %Noloadloss=0.472 normhkva=27.5 wdg=1 conn=wye bus=s_ncctt552.3 Kv=7.19956 kva=25.0 EmergHKVA=37.5 %r=0.266272 wdg=2 conn=wye bus=s_ncctt552_bt.1.0 Kv=0.120089 kva=25.0 EmergHKVA=37.5 %r=0.532544 wdg=3 conn=wye bus=s_ncctt552_bt.0.2 Kv=0.120089 kva=25.0 EmergHKVA=37.5 %r=0.532544 XHL=2.4 XLT=2.4 XHT=1.6

New Transformer.ctrafo(cramaee():s_ncctt269->s_ncctt269_bt) phases=3 windings=2 %loadloss=1.74408 %Noloadloss=0.6 normhkva=82.5 wdg=1 conn=wye Kv=12.47 kva=75.0 EmergHKVA=112.5 %R=0.87204 bus=s_ncctt269 wdg=2 conn=wye Kv=0.48 kva=75.0 EmergHKVA=112.5 %R=0.87204 bus=s_ncctt269_bt XHL=3.24

New Transformer.ctrafo(cramaee():s_ncctt1138->s_ncctt1138_bt) phases=1 windings=3 %loadloss=0.798816 %Noloadloss=0.37 normhkva=55.0 wdg=1 conn=wye bus=s_ncctt1138.3 Kv=7.19956 kva=50.0 EmergHKVA=75.0 %r=0.266272 wdg=2 conn=wye bus=s_ncctt1138_bt.1.0 Kv=0.120089 kva=50.0 EmergHKVA=75.0 %r=0.532544 wdg=3 conn=wye bus=s_ncctt1138_bt.0.2 Kv=0.120089 kva=50.0 EmergHKVA=75.0 %r=0.532544 XHL=2.4 XLT=2.4 XHT=1.6

New Transformer.ctrafo(cramaee():s_ncctt1556->s_ncctt1556_bt) phases=3 windings=2 %loadloss=1.74408 %Noloadloss=0.6 normhkva=82.5 wdg=1 conn=wye Kv=12.47 kva=75.0 EmergHKVA=112.5 %R=0.87204 bus=s_ncctt1556 wdg=2 conn=wye Kv=0.48 kva=75.0 EmergHKVA=112.5 %R=0.87204 bus=s_ncctt1556_bt XHL=3.24

New Transformer.ctrafo(cramaee():s_ncctt778->s_ncctt778_bt) phases=3 windings=2 %loadloss=1.61095 %Noloadloss=0.62 normhkva=110.0 wdg=1 conn=wye Kv=12.47 kva=100.0 EmergHKVA=150.0 %R=0.805475 bus=s_ncctt778 wdg=2 conn=wye Kv=0.48 kva=100.0 EmergHKVA=150.0 %R=0.805475 bus=s_ncctt778_bt XHL=3.29

New Transformer.ctrafo(cramaee():s_ncctt574->s_ncctt574_bt) phases=1 windings=3 %loadloss=0.798816 %Noloadloss=0.472 normhkva=27.5 wdg=1 conn=wye bus=s_ncctt574.1 Kv=7.19956 kva=25.0 EmergHKVA=37.5 %r=0.266272 wdg=2 conn=wye bus=s_ncctt574_bt.1.0 Kv=0.120089 kva=25.0 EmergHKVA=37.5 %r=0.532544 wdg=3 conn=wye bus=s_ncctt574_bt.0.2 Kv=0.120089 kva=25.0 EmergHKVA=37.5 %r=0.532544 XHL=2.4 XLT=2.4 XHT=1.6

New Transformer.ctrafo(cramaee():s_ncctt96->s_ncctt96_bt) phases=3 windings=2 %loadloss=1.74408 %Noloadloss=0.6 normhkva=82.5 wdg=1 conn=wye Kv=12.47 kva=75.0 EmergHKVA=112.5 %R=0.87204 bus=s_ncctt96 wdg=2 conn=wye Kv=0.48 kva=75.0 EmergHKVA=112.5 %R=0.87204 bus=s_ncctt96_bt XHL=3.24

New Transformer.ctrafo(cramaee():s_ncctt1098->s_ncctt1098_bt) phases=1 windings=3 %loadloss=0.798816 %Noloadloss=0.472 normhkva=27.5 wdg=1 conn=wye bus=s_ncctt1098.3 Kv=7.19956 kva=25.0 EmergHKVA=37.5 %r=0.266272 wdg=2 conn=wye bus=s_ncctt1098_bt.1.0 Kv=0.120089 kva=25.0 EmergHKVA=37.5 %r=0.532544 wdg=3 conn=wye bus=s_ncctt1098_bt.0.2 Kv=0.120089 kva=25.0 EmergHKVA=37.5 %r=0.532544 XHL=2.4 XLT=2.4 XHT=1.6

New Transformer.ctrafo(cramaee():s_ncctt1351->s_ncctt1351_bt) phases=1 windings=3 %loadloss=0.798816 %Noloadloss=0.472 normhkva=27.5 wdg=1 conn=wye bus=s_ncctt1351.2 Kv=7.19956 kva=25.0 EmergHKVA=37.5 %r=0.266272 wdg=2 conn=wye bus=s_ncctt1351_bt.1.0 Kv=0.120089 kva=25.0 EmergHKVA=37.5 %r=0.532544 wdg=3 conn=wye bus=s_ncctt1351_bt.0.2 Kv=0.120089 kva=25.0 EmergHKVA=37.5 %r=0.532544 XHL=2.4 XLT=2.4 XHT=1.6

New Transformer.ctrafo(cramaee():s_ncctt1251->s_ncctt1251_bt) phases=1 windings=3 %loadloss=0.798816 %Noloadloss=0.37 normhkva=55.0 wdg=1 conn=wye bus=s_ncctt1251.2 Kv=7.19956 kva=50.0 EmergHKVA=75.0 %r=0.266272 wdg=2 conn=wye bus=s_ncctt1251_bt.1.0 Kv=0.120089 kva=50.0 EmergHKVA=75.0 %r=0.532544 wdg=3 conn=wye bus=s_ncctt1251_bt.0.2 Kv=0.120089 kva=50.0 EmergHKVA=75.0 %r=0.532544 XHL=2.4 XLT=2.4 XHT=1.6

New Transformer.ctrafo(cramaee():s_ncctt962->s_ncctt962_bt) phases=3 windings=2 %loadloss=1.74408 %Noloadloss=0.6 normhkva=82.5 wdg=1 conn=wye Kv=12.47 kva=75.0 EmergHKVA=112.5 %R=0.87204 bus=s_ncctt962 wdg=2 conn=wye Kv=0.48 kva=75.0 EmergHKVA=112.5 %R=0.87204 bus=s_ncctt962_bt XHL=3.24

New Transformer.ctrafo(cramaee():s_ncctt99->s_ncctt99_bt) phases=1 windings=3 %loadloss=0.798816 %Noloadloss=0.37 normhkva=55.0 wdg=1 conn=wye bus=s_ncctt99.1 Kv=7.19956 kva=50.0 EmergHKVA=75.0 %r=0.266272 wdg=2 conn=wye bus=s_ncctt99_bt.1.0 Kv=0.120089 kva=50.0 EmergHKVA=75.0 %r=0.532544 wdg=3 conn=wye bus=s_ncctt99_bt.0.2 Kv=0.120089 kva=50.0 EmergHKVA=75.0 %r=0.532544 XHL=2.4 XLT=2.4 XHT=1.6

New Transformer.ctrafo(cramaee():s_ncctt1183->s_ncctt1183_bt) phases=3 windings=2 %loadloss=2.1568 %Noloadloss=0.516667 normhkva=165.0 wdg=1 conn=wye Kv=12.47 kva=150.0 EmergHKVA=225.0 %R=1.0784 bus=s_ncctt1183 wdg=2 conn=wye Kv=0.48 kva=150.0 EmergHKVA=225.0 %R=1.0784 bus=s_ncctt1183_bt XHL=3.39

New Transformer.ctrafo(cramaee():s_ncctt484->s_ncctt484_bt) phases=3 windings=2 %loadloss=1.74408 %Noloadloss=0.6 normhkva=82.5 wdg=1 conn=wye Kv=12.47 kva=75.0 EmergHKVA=112.5 %R=0.87204 bus=s_ncctt484 wdg=2 conn=wye Kv=0.48 kva=75.0 EmergHKVA=112.5 %R=0.87204 bus=s_ncctt484_bt XHL=3.24

New Transformer.ctrafo(cramaee():s_ncctt513->s_ncctt513_bt) phases=1 windings=3 %loadloss=0.798816 %Noloadloss=0.37 normhkva=55.0 wdg=1 conn=wye bus=s_ncctt513.2 Kv=7.19956 kva=50.0 EmergHKVA=75.0 %r=0.266272 wdg=2 conn=wye bus=s_ncctt513_bt.1.0 Kv=0.120089 kva=50.0 EmergHKVA=75.0 %r=0.532544 wdg=3 conn=wye bus=s_ncctt513_bt.0.2 Kv=0.120089 kva=50.0 EmergHKVA=75.0 %r=0.532544 XHL=2.4 XLT=2.4 XHT=1.6

New Transformer.ctrafo(cramaee():s_ncctt670->s_ncctt670_bt) phases=1 windings=3 %loadloss=0.798816 %Noloadloss=0.37 normhkva=55.0 wdg=1 conn=wye bus=s_ncctt670.1 Kv=7.19956 kva=50.0 EmergHKVA=75.0 %r=0.266272 wdg=2 conn=wye bus=s_ncctt670_bt.1.0 Kv=0.120089 kva=50.0 EmergHKVA=75.0 %r=0.532544 wdg=3 conn=wye bus=s_ncctt670_bt.0.2 Kv=0.120089 kva=50.0 EmergHKVA=75.0 %r=0.532544 XHL=2.4 XLT=2.4 XHT=1.6

New Transformer.ctrafo(cramaee():s_ncctt98->s_ncctt98_bt) phases=3 windings=2 %loadloss=1.82396 %Noloadloss=0.325 normhkva=330.0 wdg=1 conn=wye Kv=12.47 kva=300.0 EmergHKVA=450.0 %R=0.91198 bus=s_ncctt98 wdg=2 conn=wye Kv=0.48 kva=300.0 EmergHKVA=450.0 %R=0.91198 bus=s_ncctt98_bt XHL=3.76

New Transformer.ctrafo(cramaee():s_ncctt1416->s_ncctt1416_bt) phases=3 windings=2 %loadloss=1.82396 %Noloadloss=0.325 normhkva=330.0 wdg=1 conn=wye Kv=12.47 kva=300.0 EmergHKVA=450.0 %R=0.91198 bus=s_ncctt1416 wdg=2 conn=wye Kv=0.48 kva=300.0 EmergHKVA=450.0 %R=0.91198 bus=s_ncctt1416_bt XHL=3.76

New Transformer.ctrafo(cramaee():s_ncctt1406->s_ncctt1406_bt) phases=3 windings=2 %loadloss=1.74408 %Noloadloss=0.6 normhkva=82.5 wdg=1 conn=wye Kv=12.47 kva=75.0 EmergHKVA=112.5 %R=0.87204 bus=s_ncctt1406 wdg=2 conn=wye Kv=0.48 kva=75.0 EmergHKVA=112.5 %R=0.87204 bus=s_ncctt1406_bt XHL=3.24

New Transformer.ctrafo(cramaee():s_ncctt137->s_ncctt137_bt) phases=1 windings=3 %loadloss=0.798816 %Noloadloss=0.37 normhkva=55.0 wdg=1 conn=wye bus=s_ncctt137.1 Kv=7.19956 kva=50.0 EmergHKVA=75.0 %r=0.266272 wdg=2 conn=wye bus=s_ncctt137_bt.1.0 Kv=0.120089 kva=50.0 EmergHKVA=75.0 %r=0.532544 wdg=3 conn=wye bus=s_ncctt137_bt.0.2 Kv=0.120089 kva=50.0 EmergHKVA=75.0 %r=0.532544 XHL=2.4 XLT=2.4 XHT=1.6

New Transformer.ctrafo(cramaee():s_ncctt1428->s_ncctt1428_bt) phases=3 windings=2 %loadloss=1.61095 %Noloadloss=0.62 normhkva=110.0 wdg=1 conn=wye Kv=12.47 kva=100.0 EmergHKVA=150.0 %R=0.805475 bus=s_ncctt1428 wdg=2 conn=wye Kv=0.48 kva=100.0 EmergHKVA=150.0 %R=0.805475 bus=s_ncctt1428_bt XHL=3.29

New Transformer.ctrafo(cramaee():s_ncctt150->s_ncctt150_bt) phases=3 windings=2 %loadloss=1.74408 %Noloadloss=0.6 normhkva=82.5 wdg=1 conn=wye Kv=12.47 kva=75.0 EmergHKVA=112.5 %R=0.87204 bus=s_ncctt150 wdg=2 conn=wye Kv=0.48 kva=75.0 EmergHKVA=112.5 %R=0.87204 bus=s_ncctt150_bt XHL=3.24

New Transformer.ctrafo(cramaee():s_ncctt452->s_ncctt452_bt) phases=1 windings=3 %loadloss=0.798816 %Noloadloss=0.472 normhkva=27.5 wdg=1 conn=wye bus=s_ncctt452.1 Kv=7.19956 kva=25.0 EmergHKVA=37.5 %r=0.266272 wdg=2 conn=wye bus=s_ncctt452_bt.1.0 Kv=0.120089 kva=25.0 EmergHKVA=37.5 %r=0.532544 wdg=3 conn=wye bus=s_ncctt452_bt.0.2 Kv=0.120089 kva=25.0 EmergHKVA=37.5 %r=0.532544 XHL=2.4 XLT=2.4 XHT=1.6

New Transformer.ctrafo(cramaee():s_ncctt893->s_ncctt893_bt) phases=1 windings=3 %loadloss=0.798816 %Noloadloss=0.472 normhkva=27.5 wdg=1 conn=wye bus=s_ncctt893.1 Kv=7.19956 kva=25.0 EmergHKVA=37.5 %r=0.266272 wdg=2 conn=wye bus=s_ncctt893_bt.1.0 Kv=0.120089 kva=25.0 EmergHKVA=37.5 %r=0.532544 wdg=3 conn=wye bus=s_ncctt893_bt.0.2 Kv=0.120089 kva=25.0 EmergHKVA=37.5 %r=0.532544 XHL=2.4 XLT=2.4 XHT=1.6

New Transformer.ctrafo(cramaee():s_ncctt1419->s_ncctt1419_bt) phases=1 windings=3 %loadloss=0.798816 %Noloadloss=0.37 normhkva=55.0 wdg=1 conn=wye bus=s_ncctt1419.1 Kv=7.19956 kva=50.0 EmergHKVA=75.0 %r=0.266272 wdg=2 conn=wye bus=s_ncctt1419_bt.1.0 Kv=0.120089 kva=50.0 EmergHKVA=75.0 %r=0.532544 wdg=3 conn=wye bus=s_ncctt1419_bt.0.2 Kv=0.120089 kva=50.0 EmergHKVA=75.0 %r=0.532544 XHL=2.4 XLT=2.4 XHT=1.6

New Transformer.ctrafo(cramaee():s_ncctt360->s_ncctt360_bt) phases=1 windings=3 %loadloss=0.798816 %Noloadloss=0.472 normhkva=27.5 wdg=1 conn=wye bus=s_ncctt360.1 Kv=7.19956 kva=25.0 EmergHKVA=37.5 %r=0.266272 wdg=2 conn=wye bus=s_ncctt360_bt.1.0 Kv=0.120089 kva=25.0 EmergHKVA=37.5 %r=0.532544 wdg=3 conn=wye bus=s_ncctt360_bt.0.2 Kv=0.120089 kva=25.0 EmergHKVA=37.5 %r=0.532544 XHL=2.4 XLT=2.4 XHT=1.6

New Transformer.ctrafo(cramaee():s_ncctt591->s_ncctt591_bt) phases=3 windings=2 %loadloss=1.82396 %Noloadloss=0.325 normhkva=330.0 wdg=1 conn=wye Kv=12.47 kva=300.0 EmergHKVA=450.0 %R=0.91198 bus=s_ncctt591 wdg=2 conn=wye Kv=0.48 kva=300.0 EmergHKVA=450.0 %R=0.91198 bus=s_ncctt591_bt XHL=3.76

New Transformer.ctrafo(cramaee():s_ncctt697->s_ncctt697_bt) phases=1 windings=3 %loadloss=0.798816 %Noloadloss=0.472 normhkva=27.5 wdg=1 conn=wye bus=s_ncctt697.3 Kv=7.19956 kva=25.0 EmergHKVA=37.5 %r=0.266272 wdg=2 conn=wye bus=s_ncctt697_bt.1.0 Kv=0.120089 kva=25.0 EmergHKVA=37.5 %r=0.532544 wdg=3 conn=wye bus=s_ncctt697_bt.0.2 Kv=0.120089 kva=25.0 EmergHKVA=37.5 %r=0.532544 XHL=2.4 XLT=2.4 XHT=1.6

New Transformer.ctrafo(cramaee():s_ncctt25->s_ncctt25_bt) phases=3 windings=2 %loadloss=1.74408 %Noloadloss=0.6 normhkva=82.5 wdg=1 conn=wye Kv=12.47 kva=75.0 EmergHKVA=112.5 %R=0.87204 bus=s_ncctt25 wdg=2 conn=wye Kv=0.48 kva=75.0 EmergHKVA=112.5 %R=0.87204 bus=s_ncctt25_bt XHL=3.24

New Transformer.ctrafo(cramaee():s_ncctt540->s_ncctt540_bt) phases=1 windings=3 %loadloss=0.798816 %Noloadloss=0.472 normhkva=27.5 wdg=1 conn=wye bus=s_ncctt540.1 Kv=7.19956 kva=25.0 EmergHKVA=37.5 %r=0.266272 wdg=2 conn=wye bus=s_ncctt540_bt.1.0 Kv=0.120089 kva=25.0 EmergHKVA=37.5 %r=0.532544 wdg=3 conn=wye bus=s_ncctt540_bt.0.2 Kv=0.120089 kva=25.0 EmergHKVA=37.5 %r=0.532544 XHL=2.4 XLT=2.4 XHT=1.6

New Transformer.ctrafo(cramaee():s_ncctt51->s_ncctt51_bt) phases=1 windings=3 %loadloss=0.798816 %Noloadloss=0.472 normhkva=27.5 wdg=1 conn=wye bus=s_ncctt51.1 Kv=7.19956 kva=25.0 EmergHKVA=37.5 %r=0.266272 wdg=2 conn=wye bus=s_ncctt51_bt.1.0 Kv=0.120089 kva=25.0 EmergHKVA=37.5 %r=0.532544 wdg=3 conn=wye bus=s_ncctt51_bt.0.2 Kv=0.120089 kva=25.0 EmergHKVA=37.5 %r=0.532544 XHL=2.4 XLT=2.4 XHT=1.6

New Transformer.ctrafo(cramaee():s_ncctt73->s_ncctt73_bt) phases=1 windings=3 %loadloss=0.798816 %Noloadloss=0.37 normhkva=55.0 wdg=1 conn=wye bus=s_ncctt73.2 Kv=7.19956 kva=50.0 EmergHKVA=75.0 %r=0.266272 wdg=2 conn=wye bus=s_ncctt73_bt.1.0 Kv=0.120089 kva=50.0 EmergHKVA=75.0 %r=0.532544 wdg=3 conn=wye bus=s_ncctt73_bt.0.2 Kv=0.120089 kva=50.0 EmergHKVA=75.0 %r=0.532544 XHL=2.4 XLT=2.4 XHT=1.6

New Transformer.ctrafo(cramaee():s_ncctt802->s_ncctt802_bt) phases=1 windings=3 %loadloss=0.798816 %Noloadloss=0.37 normhkva=55.0 wdg=1 conn=wye bus=s_ncctt802.2 Kv=7.19956 kva=50.0 EmergHKVA=75.0 %r=0.266272 wdg=2 conn=wye bus=s_ncctt802_bt.1.0 Kv=0.120089 kva=50.0 EmergHKVA=75.0 %r=0.532544 wdg=3 conn=wye bus=s_ncctt802_bt.0.2 Kv=0.120089 kva=50.0 EmergHKVA=75.0 %r=0.532544 XHL=2.4 XLT=2.4 XHT=1.6

New Transformer.ctrafo(cramaee():s_ncctt1228->s_ncctt1228_bt) phases=3 windings=2 %loadloss=1.74408 %Noloadloss=0.6 normhkva=82.5 wdg=1 conn=wye Kv=12.47 kva=75.0 EmergHKVA=112.5 %R=0.87204 bus=s_ncctt1228 wdg=2 conn=wye Kv=0.48 kva=75.0 EmergHKVA=112.5 %R=0.87204 bus=s_ncctt1228_bt XHL=3.24

New Transformer.ctrafo(cramaee():s_ncctt386->s_ncctt386_bt) phases=3 windings=2 %loadloss=1.61095 %Noloadloss=0.62 normhkva=110.0 wdg=1 conn=wye Kv=12.47 kva=100.0 EmergHKVA=150.0 %R=0.805475 bus=s_ncctt386 wdg=2 conn=wye Kv=0.48 kva=100.0 EmergHKVA=150.0 %R=0.805475 bus=s_ncctt386_bt XHL=3.29

New Transformer.ctrafo(cramaee():s_ncctt41->s_ncctt41_bt) phases=1 windings=3 %loadloss=0.798816 %Noloadloss=0.472 normhkva=27.5 wdg=1 conn=wye bus=s_ncctt41.1 Kv=7.19956 kva=25.0 EmergHKVA=37.5 %r=0.266272 wdg=2 conn=wye bus=s_ncctt41_bt.1.0 Kv=0.120089 kva=25.0 EmergHKVA=37.5 %r=0.532544 wdg=3 conn=wye bus=s_ncctt41_bt.0.2 Kv=0.120089 kva=25.0 EmergHKVA=37.5 %r=0.532544 XHL=2.4 XLT=2.4 XHT=1.6

New Transformer.ctrafo(cramaee():s_ncctt1229->s_ncctt1229_bt) phases=1 windings=3 %loadloss=0.798816 %Noloadloss=0.37 normhkva=55.0 wdg=1 conn=wye bus=s_ncctt1229.1 Kv=7.19956 kva=50.0 EmergHKVA=75.0 %r=0.266272 wdg=2 conn=wye bus=s_ncctt1229_bt.1.0 Kv=0.120089 kva=50.0 EmergHKVA=75.0 %r=0.532544 wdg=3 conn=wye bus=s_ncctt1229_bt.0.2 Kv=0.120089 kva=50.0 EmergHKVA=75.0 %r=0.532544 XHL=2.4 XLT=2.4 XHT=1.6

New Transformer.ctrafo(cramaee():s_ncctt219->s_ncctt219_bt) phases=3 windings=2 %loadloss=2.1568 %Noloadloss=0.516667 normhkva=165.0 wdg=1 conn=wye Kv=12.47 kva=150.0 EmergHKVA=225.0 %R=1.0784 bus=s_ncctt219 wdg=2 conn=wye Kv=0.48 kva=150.0 EmergHKVA=225.0 %R=1.0784 bus=s_ncctt219_bt XHL=3.39

New Transformer.ctrafo(cramaee():s_ncctt1369->s_ncctt1369_bt) phases=3 windings=2 %loadloss=1.4645 %Noloadloss=0.266 normhkva=550.0 wdg=1 conn=wye Kv=12.47 kva=500.0 EmergHKVA=750.0 %R=0.73225 bus=s_ncctt1369 wdg=2 conn=wye Kv=0.48 kva=500.0 EmergHKVA=750.0 %R=0.73225 bus=s_ncctt1369_bt XHL=4.36

New Transformer.ctrafo(cramaee():s_ncctt455->s_ncctt455_bt) phases=1 windings=3 %loadloss=0.798816 %Noloadloss=0.472 normhkva=27.5 wdg=1 conn=wye bus=s_ncctt455.2 Kv=7.19956 kva=25.0 EmergHKVA=37.5 %r=0.266272 wdg=2 conn=wye bus=s_ncctt455_bt.1.0 Kv=0.120089 kva=25.0 EmergHKVA=37.5 %r=0.532544 wdg=3 conn=wye bus=s_ncctt455_bt.0.2 Kv=0.120089 kva=25.0 EmergHKVA=37.5 %r=0.532544 XHL=2.4 XLT=2.4 XHT=1.6

New Transformer.ctrafo(cramaee():s_ncctt14->s_ncctt14_bt) phases=1 windings=3 %loadloss=0.798816 %Noloadloss=0.472 normhkva=27.5 wdg=1 conn=wye bus=s_ncctt14.1 Kv=7.19956 kva=25.0 EmergHKVA=37.5 %r=0.266272 wdg=2 conn=wye bus=s_ncctt14_bt.1.0 Kv=0.120089 kva=25.0 EmergHKVA=37.5 %r=0.532544 wdg=3 conn=wye bus=s_ncctt14_bt.0.2 Kv=0.120089 kva=25.0 EmergHKVA=37.5 %r=0.532544 XHL=2.4 XLT=2.4 XHT=1.6

New Transformer.ctrafo(cramaee():s_ncctt1495->s_ncctt1495_bt) phases=1 windings=3 %loadloss=0.798816 %Noloadloss=0.37 normhkva=55.0 wdg=1 conn=wye bus=s_ncctt1495.1 Kv=7.19956 kva=50.0 EmergHKVA=75.0 %r=0.266272 wdg=2 conn=wye bus=s_ncctt1495_bt.1.0 Kv=0.120089 kva=50.0 EmergHKVA=75.0 %r=0.532544 wdg=3 conn=wye bus=s_ncctt1495_bt.0.2 Kv=0.120089 kva=50.0 EmergHKVA=75.0 %r=0.532544 XHL=2.4 XLT=2.4 XHT=1.6
